15

Li         0.0000000000        0.0000000000        0.0000000000
Li        -0.0000000001        0.0000000000        0.6342268199
Li         0.0000000001       -0.0000000001       -0.6342268199
Li         0.3221163941       -0.5579219605        0.2953321317
Li         0.3221163940        0.5579219606        0.2953321317
Li         0.5579219605        0.3221163941       -0.2953321316
Li         0.5579219606       -0.3221163941       -0.2953321316
Li         0.0000000000        0.6442327882       -0.2953321317
Li        -0.3221163941       -0.5579219606        0.2953321317
Li         0.0000000001       -0.6442327882       -0.2953321316
Li        -0.3221163942        0.5579219605        0.2953321316
Li        -0.6442327883       -0.0000000001        0.2953321316
Li        -0.5579219606        0.3221163940       -0.2953321318
Li        -0.5579219605       -0.3221163942       -0.2953321317
Li         0.6442327882        0.0000000001        0.2953321317
