38

Li         0.3444866370        0.3444866370        0.0000000000
Li         1.0208101121        0.3415152959        0.0000000000
Li         0.3415152959        1.0208101121        0.0000000000
Li        -0.3444866370        0.3444866370        0.0000000000
Li        -1.0208101121        0.3415152959        0.0000000000
Li        -0.3415152959        1.0208101121        0.0000000000
Li        -0.3444866370       -0.3444866370        0.0000000000
Li        -1.0208101121       -0.3415152959        0.0000000000
Li        -0.3415152959       -1.0208101121        0.0000000000
Li         0.3444866370       -0.3444866370        0.0000000000
Li         1.0208101121       -0.3415152959        0.0000000000
Li         0.3415152959       -1.0208101121        0.0000000000
Li         0.0000000000        0.0000000000        0.4871776741
Li         0.7071623771        0.0000000000        0.5000393122
Li        -0.7071623771        0.0000000000        0.5000393122
Li         0.0000000000        0.7071623771        0.5000393122
Li         0.0000000000       -0.7071623771        0.5000393122
Li         0.6811627040        0.6811627040        0.4803339710
Li        -0.6811627040        0.6811627040        0.4803339710
Li        -0.6811627040       -0.6811627040        0.4803339710
Li         0.6811627040       -0.6811627040        0.4803339710
Li         0.0000000000        0.0000000000       -0.4871776741
Li         0.7071623771        0.0000000000       -0.5000393122
Li        -0.7071623771        0.0000000000       -0.5000393122
Li         0.0000000000        0.7071623771       -0.5000393122
Li         0.0000000000       -0.7071623771       -0.5000393122
Li         0.6811627040        0.6811627040       -0.4803339710
Li        -0.6811627040        0.6811627040       -0.4803339710
Li        -0.6811627040       -0.6811627040       -0.4803339710
Li         0.6811627040       -0.6811627040       -0.4803339710
Li         0.3396474081        0.3396474081        0.9633095342
Li        -0.3396474081        0.3396474081        0.9633095342
Li        -0.3396474081       -0.3396474081        0.9633095342
Li         0.3396474081       -0.3396474081        0.9633095342
Li         0.3396474081        0.3396474081       -0.9633095342
Li        -0.3396474081        0.3396474081       -0.9633095342
Li        -0.3396474081       -0.3396474081       -0.9633095342
Li         0.3396474081       -0.3396474081       -0.9633095342
