39

Li         0.3435764613        0.3435764613        0.0056569912
Li         1.0220257426        0.3408424275        0.0006931805
Li         0.3408424275        1.0220257426        0.0006931805
Li        -0.3435764613        0.3435764613        0.0056569912
Li        -1.0220257426        0.3408424275        0.0006931805
Li        -0.3408424275        1.0220257426        0.0006931805
Li        -0.3435764613       -0.3435764613        0.0056569912
Li        -1.0220257426       -0.3408424275        0.0006931805
Li        -0.3408424275       -1.0220257426        0.0006931805
Li         0.3435764613       -0.3435764613        0.0056569912
Li         1.0220257426       -0.3408424275        0.0006931805
Li         0.3408424275       -1.0220257426        0.0006931805
Li         0.0000000000        0.0000000000        0.5023652240
Li         0.7087245755        0.0000000000        0.5015174753
Li        -0.7087245755        0.0000000000        0.5015174753
Li         0.0000000000        0.7087245755        0.5015174753
Li         0.0000000000       -0.7087245755        0.5015174753
Li         0.6856616841        0.6856616841        0.4763570642
Li        -0.6856616841        0.6856616841        0.4763570642
Li        -0.6856616841       -0.6856616841        0.4763570642
Li         0.6856616841       -0.6856616841        0.4763570642
Li         0.0000000000        0.0000000000       -0.4839114543
Li         0.7053845676        0.0000000000       -0.4970272804
Li        -0.7053845676        0.0000000000       -0.4970272804
Li         0.0000000000        0.7053845676       -0.4970272804
Li         0.0000000000       -0.7053845676       -0.4970272804
Li         0.6803652860        0.6803652860       -0.4768512013
Li        -0.6803652860        0.6803652860       -0.4768512013
Li        -0.6803652860       -0.6803652860       -0.4768512013
Li         0.6803652860       -0.6803652860       -0.4768512013
Li         0.3515576167        0.3515576167        0.9669810251
Li        -0.3515576167        0.3515576167        0.9669810251
Li        -0.3515576167       -0.3515576167        0.9669810251
Li         0.3515576167       -0.3515576167        0.9669810251
Li         0.3394324409        0.3394324409       -0.9613368987
Li        -0.3394324409        0.3394324409       -0.9613368987
Li        -0.3394324409       -0.3394324409       -0.9613368987
Li         0.3394324409       -0.3394324409       -0.9613368987
Li         0.0000000000        0.0000000000        1.3997363250
