52

Li         0.0188090117       -0.0000018521        0.0304327317
Li         0.0373285074       -0.0000003848        0.7153141519
Li         0.1814008876       -0.5801455190        0.2935142323
Li        -0.4737567639       -0.3492827503        0.3054956518
Li        -0.4737567752        0.3492802086        0.3054941556
Li         0.1814008688        0.5801429471        0.2935117471
Li         0.6231022079       -0.0000011507        0.3532875976
Li        -0.1827764397       -0.5631198817       -0.2957395424
Li        -0.5869271170       -0.0000025440       -0.2880351554
Li        -0.1827764579        0.5631147738       -0.2957419546
Li         0.4851153845        0.3492789548       -0.2871189708
Li         0.4851153958       -0.3492840041       -0.2871174746
Li         0.0048586456       -0.0000033178       -0.6537773530
Li         0.1664223112       -0.6226791094        0.9532830302
Li        -0.4812923463       -0.3576625558        0.9686076377
Li        -0.4812923579        0.3576628545        0.9686061055
Li         0.1664222910        0.6226793634        0.9532803628
Li         0.7782135373       -0.6226799093        0.5751768275
Li         0.3511238353       -1.1566644409        0.5681340898
Li        -0.3146620678       -0.9499940786        0.5900743511
Li        -0.9556785827       -0.6933170015        0.5926075898
Li        -0.9745800342       -0.0000006265        0.6101270273
Li        -0.9556786052        0.6933156740        0.5926046197
Li        -0.3146620986        0.9499927610        0.5900702815
Li         0.3511237978        1.1566630509        0.5681291349
Li         0.7782135171        0.6226785634        0.5751741601
Li         0.6684988741       -0.9499953641       -0.0175500059
Li        -0.0096421457       -1.1603948168       -0.0155999440
Li        -0.6813002604       -0.9261697070       -0.0052903879
Li        -1.0903014014       -0.3534180923        0.0056957402
Li        -1.0903014129        0.3534142463        0.0056942262
Li        -0.6813002904        0.9261658271       -0.0052943554
Li        -0.0096421834        1.1603909146       -0.0156049149
Li         0.6684988433        0.9499914755       -0.0175540755
Li         1.0815896984        0.3576608109        0.0026958826
Li         1.0815897100       -0.3576645994        0.0026974147
Li         0.2999562979       -0.9261709900       -0.6117377760
Li        -0.3703929817       -1.1181983049       -0.5993095696
Li        -0.7921297509       -0.5710969494       -0.6045174327
Li        -1.1776885218       -0.0000031875       -0.5839972724
Li        -0.7921297694        0.5710904989       -0.6045198791
Li        -0.3703930180        1.1181918904       -0.5993143598
Li         0.2999562678        0.9261645441       -0.6117417435
Li         0.9574385591        0.6933131725       -0.5897619058
Li         0.9815627746       -0.0000031843       -0.5988306985
Li         0.9574385816       -0.6933195030       -0.5897589357
Li        -0.1864421752       -0.5710977413       -0.9788513876
Li        -0.6009634414       -0.0000040100       -0.9723843241
Li        -0.1864421937        0.5710897070       -0.9788538341
Li         0.4926958723        0.3534121764       -0.9726478402
Li         0.4926958838       -0.3534201622       -0.9726463263
Li         0.0043410649       -0.0000047331       -1.3145287012
