56

Li        -0.0272458684       -0.0020132966        0.0106875477
Li        -0.0143127654        0.0020422702        0.6798055941
Li         0.1709256524       -0.5696783409        0.3042126366
Li        -0.5086414154       -0.3542866046        0.3174013335
Li        -0.5143707856        0.3480807272        0.3154742846
Li         0.1737039723        0.5660535944        0.3046202341
Li         0.5829450873       -0.0019366839        0.2983930897
Li        -0.2232336340       -0.5725416659       -0.2856991309
Li        -0.6301840945       -0.0005205455       -0.2832083009
Li        -0.2095054517        0.5701764263       -0.2847494813
Li         0.4630491619        0.3470362808       -0.2940790238
Li         0.4596997315       -0.3526855855       -0.2944035064
Li        -0.0238713096       -0.0026959927       -0.6583869461
Li         0.0261180910        0.0041383535        1.3338025619
Li         0.2236258262       -0.5719388322        0.9871304844
Li        -0.4411630104       -0.4034104658        1.0205861936
Li        -0.4294928815        0.4228508354        1.0205102317
Li         0.2309900979        0.5780480274        0.9851949930
Li         0.6165519498        0.0008607793        0.9754634185
Li         0.7994093307       -0.5747702450        0.5969359008
Li         0.3815565628       -1.1237674846        0.5948895262
Li        -0.2811885042       -0.9370535523        0.6449273965
Li        -0.9879728827       -0.6663300298        0.5921439211
Li        -0.9011604705        0.0169605912        0.8060486668
Li        -1.1549096104       -0.0425862346        0.2149898714
Li        -0.9527004128        0.7046881382        0.6142229982
Li        -0.2827395482        0.9462657358        0.6209380358
Li         0.3852034014        1.1240884983        0.5905090906
Li         0.8032233905        0.5732226022        0.5934015294
Li         1.1837115244       -0.0020286174        0.5791466185
Li         0.6850575266       -0.9247066838        0.0029726388
Li         0.0391246985       -1.1617604565       -0.0053135747
Li        -0.6095455981       -1.0207493862        0.0721148560
Li        -1.0449310302       -0.5771591192       -0.1221356464
Li        -1.0782695943        0.5324601442       -0.0691455191
Li        -0.6272591913        0.9984758632        0.0432374588
Li         0.0312026533        1.1595558358       -0.0020653256
Li         0.6830913533        0.9228828013       -0.0002373428
Li         1.0881291395        0.3492902726       -0.0081040047
Li         1.0863727746       -0.3525682947       -0.0081987156
Li         0.2918054972       -0.9301662477       -0.6005703284
Li        -0.3761881727       -1.1273703310       -0.5815469425
Li        -0.7680793808       -0.5593158227       -0.7112882905
Li        -1.2149465963       -0.0056929862       -0.5294587963
Li        -0.7801861248        0.5833611933       -0.6547146164
Li        -0.3618170231        1.1332748637       -0.5831995050
Li         0.2977081953        0.9288977400       -0.6001200082
Li         0.9464742178        0.6884819724       -0.5931741913
Li         0.9659488200       -0.0020584314       -0.6032801131
Li         0.9432951576       -0.6932315812       -0.5928520964
Li        -0.1593306174       -0.5841299851       -0.9859911082
Li        -0.6117653780        0.0251342055       -0.9886358653
Li        -0.1738197400        0.5848791077       -0.9768679888
Li         0.4812859053        0.3511701025       -0.9750879812
Li         0.4867849624       -0.3476081357       -0.9768018169
Li        -0.0056101729        0.0031325584       -1.3183155578
