57

Li        -0.0282595340        0.0000138062        0.0191803266
Li        -0.0354906525        0.0000369802        0.6966315193
Li         0.1706160233       -0.5666064077        0.3116880164
Li        -0.5104546708       -0.3568303449        0.3170617551
Li        -0.5104479021        0.3568874218        0.3170374128
Li         0.1706267707        0.5666501993        0.3116493651
Li         0.5793423935        0.0000178099        0.3055193069
Li        -0.2108287809       -0.5687058976       -0.2865762095
Li        -0.6342137158        0.0000095463       -0.2742129738
Li        -0.2108179939        0.5687161149       -0.2866150028
Li         0.4618095990        0.3488348603       -0.2890697661
Li         0.4618029825       -0.3488375688       -0.2890459710
Li        -0.0225054873       -0.0000091895       -0.6534552834
Li         0.0426028373        0.0000584280        1.3471948555
Li         0.2397535659       -0.5772615567        0.9873444487
Li        -0.4242961365       -0.4731128291        1.0214893515
Li        -0.4242871618        0.4732163224        1.0214570756
Li        -0.6021739398        0.0000681574        1.4531728110
Li         0.2397645159        0.5773501254        0.9873050691
Li         0.6185592279        0.0000402872        0.9754589678
Li         0.8051504729       -0.5769772138        0.5932928180
Li         0.3825205649       -1.1267748019        0.5903671679
Li        -0.2882025746       -0.9694131399        0.5992963342
Li        -0.9851231159       -0.6723871087        0.5968366728
Li        -0.8532746627        0.0000496496        0.8407030247
Li        -1.1438404722        0.0000328183        0.2664135473
Li        -0.9851103617        0.6724722722        0.5967908045
Li        -0.2881841867        0.9694852517        0.5992302054
Li         0.3825419374        1.1268335823        0.5902903055
Li         0.8051614171        0.5770281791        0.5932534590
Li         1.1841022986        0.0000214559        0.5805809434
Li         0.6790846943       -0.9250645305        0.0015562452
Li         0.0258324912       -1.1573550123       -0.0066227267
Li        -0.6391695606       -0.9941806224        0.0290013363
Li        -1.0840414848       -0.5272071838       -0.0989312369
Li        -1.0840314847        0.5272467636       -0.0989672006
Li        -0.6391507033        0.9942204896        0.0289335191
Li         0.0258544434        1.1573798358       -0.0067016740
Li         0.6791022405        0.9250775220        0.0014931435
Li         1.0862525941        0.3503503766       -0.0051542151
Li         1.0862459489       -0.3503455625       -0.0051303169
Li         0.2976185372       -0.9276700620       -0.6017709460
Li        -0.3621382186       -1.1292931643       -0.5913005578
Li        -0.7724141464       -0.5755460618       -0.6749848818
Li        -1.1990040715        0.0000048010       -0.5703911031
Li        -0.7724032299        0.5755404365       -0.6750241412
Li        -0.3621167990        1.1292854641       -0.5913775898
Li         0.2976361325        0.9276491343       -0.6018342243
Li         0.9461381304        0.6899248572       -0.5893986797
Li         0.9664637328       -0.0000167630       -0.6005145591
Li         0.9461250441       -0.6899572377       -0.5893516169
Li        -0.1677412625       -0.5812271261       -0.9824818718
Li        -0.6096631371       -0.0000148781       -0.9835090196
Li        -0.1677302385        0.5811890565       -0.9825215176
Li         0.4848402818        0.3491535081       -0.9721189352
Li         0.4848336588       -0.3492032462       -0.9720951167
Li        -0.0028873747       -0.0000319648       -1.3157702719
