8

Li         0.1309945451       -0.3185643603       -0.4075751272
Li         0.0643348631        0.3760912151        0.4735112571
Li         0.5539326889        0.5886567287        0.1036746362
Li         0.5569949228       -0.5330872116        0.0330753909
Li         0.6532750990        0.0475403287       -0.2557978500
Li         0.0091095205       -0.2321328639        0.2307974908
Li         0.6021812966        0.0077202192        0.4037259751
Li         0.0416911037        0.2899686879       -0.1760394589
