19

                Li            4.683735           -3.754476            0.770147
                Li            1.891515           -1.467330            1.579749
                Li            1.562894            1.074928           -0.241680
                Li            6.489807           -0.777416           -0.786900
                Li            3.500369           -2.672642            3.491481
                Li            2.674452            1.081173            2.413123
                Li            4.593101            1.301209            0.411500
                Li            7.756478           -2.478427            1.293380
                Li            2.002384           -0.684254            4.646141
               Li            5.095514            2.743045            2.960340
               Li            7.153418            0.777474            1.881298
               Li            6.057624           -3.666900            3.476275
               Li            4.858232           -1.508598            5.850492
               Li            3.700206            1.680401            5.532947
               Li            6.774195            1.459587            5.086071
               Li            7.346491           -1.175581            3.945736
               Li            3.528869           -1.070760           -0.656184
               Li            5.262282           -1.356835            1.620536
               Li            4.805686            0.084589            3.750054