103

Li          3.7232130039       -5.4176461068        6.7697180195
Li         5.9931840946        4.2890220331        4.8546041736
Li         5.1653489137        4.9347110485       -4.3400711499
Li         3.0669238090        2.1530063901       -3.1140153024
Li        -0.4875275717        1.5406920303       -4.1779854874
Li        -1.0953653321        2.8845245699        6.9271034758
Li        -6.2676141419       -1.7297907288        4.0091793958
Li         6.4663286302       -5.0633070515       -4.4834345479
Li         3.2898279267        6.8995585668        4.0634792220
Li        -4.1053847495        7.0576124082       -1.4607133143
Li         1.3799884157       -6.8831795500        4.2168342805
Li         2.6781571628        3.2078713261        3.7186002980
Li        -2.3862431434       -6.1810870218        4.6199054878
Li         1.1634697713        0.3592519084        5.4711718104
Li        -1.4871567726       -2.0710209612        4.4906620735
Li         6.6762867853        1.4371044552       -3.4729792618
Li        -3.2076711743        3.8044244576       -2.9389384351
Li         1.5031299729        4.4865547675       -5.6101528384
Li         8.2876937165        0.8068974007        0.0548008651
Li         3.8958646374       -3.0171156479       -2.8840263521
Li         3.8102841423        5.0148576046       -0.8612215662
Li        -6.0154140492        5.3626264541        1.4014961199
Li         5.4755537554        2.7933634361        1.4299748166
Li         2.2025648195       -0.7980333666       -5.2067462748
Li        -6.1621632540       -5.4358585158        4.7814405840
Li        -8.5813277986       -0.7009492107        1.0803933505
Li        -0.0721030782       -4.4441954885        7.0029768030
Li        -7.6097413411        0.7098765328       -2.4987824943
Li         0.2892887143        4.5125440983       -2.0100311683
Li        -0.8119222111        2.4591675633        3.2154131076
Li        -3.3944913883       -6.9278404242       -4.1750147894
Li        -0.1923594422       -8.0457899182       -2.2575827039
Li        -4.3136333745       -3.5202553188       -2.9714918679
Li        -5.1741789390        2.1498292095       -0.1501728030
Li        -2.6580739240       -5.7356748669       -0.6674130360
Li         2.1360417888       -3.1340179722        4.3606668832
Li        -2.9863508482        7.5408969287        2.3801524333
Li        -6.2446108831       -1.4451805213       -5.3932145910
Li         0.9534309939        5.5826937829        1.5018127080
Li         5.9847131425        7.7785138800       -1.9586095839
Li        -3.9066561993       -3.2286640444        6.7647842172
Li         3.2298796982       -4.2132566043       -6.3760259642
Li        -1.4960557007        1.3645719287       -0.5836844352
Li        -0.3987013684        5.9002061590        4.8350057663
Li         1.9008489663        2.1605012155        0.3943573408
Li        -5.3829872392       -1.5157422175       -0.1301081949
Li         5.6650730864       -2.4011950278        5.3698534443
Li        -3.6258374911       -9.2542154010       -1.1709053880
Li        -5.6377355388        2.3840929095       -5.4061219151
Li         0.4963069502       -0.7391336129        1.9100491171
Li         2.7238677595       -1.9615352011        7.8794221596
Li        -2.8671722608       -0.0247631392       -6.7187890261
Li         5.8608699856       -1.4738739562       -5.6846512066
Li        -6.7051188817       -5.2234177321       -5.1451517917
Li        -0.5638489345        8.0266506238       -0.7060250380
Li        -4.8495868072       -7.3620545428        1.8642063995
Li         2.3402048350        7.4110968658       -3.2295779243
Li         4.7585527858       -0.1043861257       -0.6987289281
Li        -3.3868752021        0.1675806681        2.3551220946
Li         0.6464676562       -4.4760867123       -1.8125327080
Li        -6.2310183026       -6.4447866381       -1.5787770535
Li         4.8053174047       -5.4295143829        3.0806685098
Li        -1.0782449349       -8.2005730329        1.5553386460
Li         3.4223529003       -1.1230059902       -8.6358570614
Li        -2.4152984460        4.5123790306        0.6867165063
Li         3.1252261204        8.4408064697        0.4234990232
Li        -2.1939354910        3.7958461899       -6.5451827838
Li        -7.3625043465       -4.3517113562        1.3397313268
Li        -6.5772334278        1.9154168599        3.2521153038
Li         3.9443645605       -0.1958297074        2.9573747518
Li        -3.3946542729       -3.8679599140       -6.5463851095
Li         8.8556454781        3.8780584566        2.2920530991
Li         0.3839290770        9.0506945108        2.8845294615
Li         2.5041048852        4.5028310038        6.9822438081
Li         6.1646181874        6.4863261758        1.6668698988
Li         1.2695232083       -0.7942078233       -1.6842736053
Li         7.5058819754        4.3557739218       -1.2795576466
Li         1.7212169835        1.4674012791        9.0126698125
Li         6.7143110381       -2.3819887847        1.6147988858
Li        -4.9092543334        6.1596281305       -5.1961995578
Li        -1.3218516458        6.8468095265       -4.2939640849
Li        -8.7996774240        2.9608503660        0.3783073916
Li         7.4496754508       -2.1663640293       -2.1983393458
Li         4.3114057277        1.9618345907       -6.5810246333
Li        -3.8534031801        0.1389247948       -3.0780527879
Li         3.1866967684       -6.6526124372       -3.3666910439
Li         2.3930124614       -6.9239631610        0.4411495990
Li        -1.1111115409       -0.9043054483        8.0532490508
Li        -0.0858717563       -5.5600371538       -5.2705093328
Li        -1.8843131979       -2.1708458633       -0.4162952113
Li         7.3962245876        0.7247364937        3.8653714274
Li        -3.8985186000        0.6157938165        5.8898327521
Li         4.6024668046        1.1714604246        6.4885269957
Li         0.6090924420        1.3760016064       -7.7328259353
Li        -3.7789670654        4.1872046946        4.2958696229
Li         5.7417922420       -5.3490853286       -0.6928783373
Li         3.0841015709       -3.1650965383        0.7331167797
Li        -3.8292253732       -3.7836102538        2.3134974067
Li        -1.1089480619       -2.1787895530       -4.1431933955
Li        -6.8505528544        4.5431701421       -2.4045583620
Li        -0.2049059700       -4.5653335093        1.8980808839
Li        -7.9799232450       -3.0461272975       -2.2188018047
Li        -0.0110032836       -2.4872345163       -7.6705302106
