160

Li        -10.8981811121       -1.2829448170        1.5228214185
Li          5.0371203471        4.7768062979        8.9539347242
Li          1.0277935831       -9.6452573028       -5.0686796908
Li          2.2472724055        2.2635941384        9.4499810506
Li         -3.2904903186       -2.0661462714       -5.3627572135
Li         -0.3254543603        4.4498856970        5.2956611349
Li          1.8631987837        5.5796432998       -3.1599132812
Li          3.4979160820        9.2268330613        2.8734579384
Li         -1.3713948258      -10.6193695715       -2.2257048130
Li          5.5880841986       -0.7351491168       -2.2780089708
Li         -4.7431500098       -3.7606633699       -8.1560371911
Li          3.8986984366        1.0730322185       -8.4442799101
Li          3.3717685080       -8.6672896435       -7.8791771148
Li         -3.7613081520        6.4544541615       -6.5155868439
Li          7.3513832021       -3.0042107572       -4.6382046090
Li         -2.3072707210       -6.2445558318        0.7261490720
Li          1.4238609134        5.8559064627        8.2408063394
Li         -3.3712524154       -4.3933884871       -2.4343688498
Li          2.6596971076       11.3212936473       -0.2243269593
Li         -0.0322712642       -3.8701759363        8.8518323722
Li          5.5282202452       -0.7991141057        1.5432245074
Li          3.7417148653       -7.0378400729        1.3731067598
Li         -6.0223654181       -2.3068553025        7.4129420556
Li         -0.7289732715        0.6512089817       -5.8725079824
Li         -4.8920581222       -1.1591418620        4.0787203058
Li         -4.2772845398        0.7267223846        9.0439917025
Li          4.3763476422        5.0851460306       -0.2996082732
Li          4.6875873301       -3.8555914264       -0.2356733788
Li         -2.4194476282        2.8992297999       -1.3668521487
Li          6.9100294739        2.2528705910       -0.5587114224
Li          1.9023623833       -1.9015526501        1.9286871439
Li         -3.5181670234        9.0086712845        0.4536321343
Li          6.1114476201       -2.5145706825        6.4642714782
Li          7.8602774416       -3.0664408213        3.1129450631
Li         -2.2687758947       -0.8506158536       -8.8259896846
Li          2.9206561342        6.9101899952       -6.4675511951
Li         -2.6841635075       -8.9148208968       -5.4279458025
Li          1.2229376793       -4.7969786571       -0.3958197364
Li         -9.0491863850       -2.0531240527       -1.7683278919
Li         -5.3091240961       -6.1423560524       -5.1519807533
Li         -0.1207041859       -9.3580640589        3.6979933114
Li          5.5837744997        4.1262061679       -6.7231702762
Li          1.5712899806       -1.5089955106       -9.9941898484
Li         -0.1228081975       -6.6345426482        6.3474503039
Li          7.5164572140        0.5327142826        4.5041728081
Li         -9.3254444438        1.7565288248        3.2248799909
Li          7.9917500531        5.8300879294       -0.6979289008
Li          3.7530587516       -0.3239951118        4.7875166309
Li          3.3658649217        1.5641640247       -0.0887775991
Li         -4.9657634178       -3.5361717171        1.0154123303
Li          3.3387123645       -5.0184823077        7.1246008323
Li          5.5385358495        6.4499620622       -3.6413419422
Li          2.9002145877       -0.2218174256       -5.0503398857
Li         -3.9394139185        5.3734105477        4.4219242965
Li          9.2165588008       -0.0385038259        1.1156254573
Li         -1.7761289883       -0.6176110073       -2.5232296416
Li          2.5255013469        5.6363765475        3.0235773319
Li         -1.8951558284       -5.3115769746       -6.0884779016
Li         -7.0922578186        7.3371505525       -4.9355277615
Li          1.7099909384        7.7495700204       -0.0588754456
Li         -6.8983683643       -5.1513700006       -1.8381495187
Li         -0.0218510649       -3.5290630188       -3.4674830655
Li          5.5931473593        1.1496422665        7.7364293565
Li          0.6422898784        8.1273381521        5.2009726892
Li          1.7333332656       -6.1078007597       -5.6208069440
Li          5.3593930369        8.6384343745       -0.4624990989
Li          4.8877842259       -9.2592874477       -4.4682730766
Li          2.1002618834       -1.3898726819       -1.6543991933
Li         -1.5436664436        6.5233832098       -1.6258256734
Li         -5.8504289041        7.7555653687        6.5128824833
Li          1.5432327671        2.0072715381        3.1401919089
Li          0.7046177724       -2.5981158327       -6.7558951754
Li         -5.8738014338       -7.1193045168        1.3503377048
Li         -4.7425760194        5.1201338846       -3.1472169777
Li          8.7612692211        3.5885517924        2.4087667231
Li         -6.3425775625        7.7006678956        2.7153675108
Li         -1.1248198239       -4.3113134977       -9.5493835048
Li          4.2950208325        7.0350889859        5.9552772805
Li          0.7107976884       -5.6967086452        2.9934142020
Li          5.4380674518       -5.9617911081       -6.2898282546
Li          0.9603576064       -2.8734744042        5.4014290172
Li         -2.9780866241       -9.7922521204        1.1507762784
Li         -2.0199889275        3.0026889390        2.3611037447
Li         -2.3358936007       -1.6465954118        6.8749230657
Li         -6.7568521882        7.5594173201       -1.1266703872
Li          3.0038200963        4.6030959970       -9.5018379177
Li         -5.6972904612        2.4235443556        2.8297758683
Li         -3.1727977756        1.8588998951        5.6891476131
Li         -0.7635230783       -7.0480624629       -2.8892305077
Li         10.5072733510        2.9629564508       -0.9199688880
Li          6.2310481956        6.4973509899        2.6720947718
Li          0.4979197783       -8.4856200240        0.2168591558
Li          3.1986857900       -7.9788047971        4.8452418374
Li          2.5217342874       -5.1369536919       -9.0224925951
Li          3.7953222047       -3.7077813558       -3.8666857476
Li         -0.5997935149       -0.2460253780        9.8958333649
Li         -2.3877249999       -3.9913389607        3.8588565816
Li         -6.9029840430        1.2477108652        6.2229055943
Li         -0.2768242338       -7.8206791314       -8.2511431400
Li         -0.6129450395       10.1148562018       -1.8189079104
Li         -5.0831181574        4.2566298458        7.7998083201
Li          2.8405943483       -1.3980512358        8.3510216376
Li         -6.5122875926        3.7215892777       -6.1535521456
Li          6.5462917339       -6.1375217735       -2.6135807295
Li          9.1072104023        0.0132678156       -2.8456021106
Li          6.5398870055        0.5456868906       -5.7203259180
Li         -4.1533402312        1.5328650286       -4.3300798535
Li         -3.3129411956       -7.4834001311        4.1937626706
Li          4.1822558370       -4.0542332720        3.5293025393
Li          5.1495380685        2.8540933955        2.8103351070
Li         -3.8881012326        8.7775316413       -3.3995416242
Li         -4.4014373318        5.3101095421        0.6476736751
Li         -1.4322223122        3.3158622719        8.7351587597
Li         -1.2254571670       -0.5283183720        3.5551737256
Li         -6.9869107692       -2.8164850211       -5.0283840185
Li          6.9442657574        4.1970185805        5.7285672224
Li         -7.8544443312        0.8167439666       -4.0403580339
Li         -5.7284118568       -0.0009305938       -7.2774279424
Li          0.9054735252        1.9919763176       -2.8820845867
Li          4.5084393881        2.7950110861       -3.4173034081
Li         -2.2309124605        6.8484002296        7.4130598649
Li         -1.4106035997        4.2392932488       -4.7111982113
Li         -0.3759291380        5.5558609161       -8.0353428981
Li          2.9920740668       -7.1269878133       -2.3469856362
Li          3.0176954589      -10.6259245868        1.9152928617
Li         -6.0624390385       -4.7718349103        4.4252298373
Li         -7.6364806128        4.7943334676        4.8988269371
Li          0.7530175785        4.1951343662        0.1332866030
Li          3.2533107842        3.4179038676        6.0214241024
Li          0.2636734964        1.9553989641       -9.2403408328
Li         -1.4789538210       -2.7548163917        0.4225190031
Li         -3.7117947607        0.0851943777        0.7956404007
Li         -7.2889301432       -0.6296557798        1.1758994015
Li          4.5845226827       -2.4631035388       -7.3976086041
Li         -0.4930761787        7.9238123910       -4.9980112538
Li         -8.1393070538        4.7003317540        1.0397411623
Li          1.9616117045        3.2938886995       -6.1777195436
Li         -3.4613374537       -5.1648547310        7.2520208656
Li          5.7218173780       -9.3042188324       -0.6856744790
Li         -8.4197791920        4.4707525075       -2.8353210748
Li          6.5833136403       -6.1300882752        5.1052559399
Li         -8.5287968353       -4.2408536149        1.4919398550
Li         -3.4370806854       -2.7910575729       10.2158261086
Li         -1.1308944178        6.6248749361        2.2058659124
Li         -8.5298581069       -1.8091456939        4.5046769966
Li         -4.2802743482       -8.0605043990       -2.0096779215
Li         -9.6896166726        1.5904862281       -0.6628123310
Li         -5.4010458804       -1.3619302619       -2.1029537784
Li          0.4774606724        0.8698011143        6.5136229822
Li         -3.0348820425        9.0164918366        4.2968899906
Li          6.3065915995       -9.2865396129        3.0844453224
Li          8.1946395224       -3.0920321608       -0.8268559126
Li          2.4811984124      -10.8205241615       -1.8519688531
Li          2.8070165515        9.1605108988       -3.3585383042
Li         -6.0705484812        2.2638109874       -1.0244780349
Li          8.1082452050        3.5782265214       -3.8570496246
Li         -0.1173454955        0.6144085351        0.3343009526
Li         -0.1823917363       10.2083546084        2.0403646331
Li         -3.1515936638        2.8309751279       -7.7753604551
Li          7.2977287603       -6.2117466250        1.1838699793
