161

Li        -10.6171432202       -1.5277938201        2.7343535529
Li         5.5622875339        5.3026251421        8.8332767738
Li         0.0828090099       -8.3358878221       -6.9773605577
Li         2.8705331178        2.6824405790        9.6015010199
Li        -3.9925406841       -2.5596823936       -4.6376175752
Li         0.0335832084        4.5830950099        5.4785395747
Li         1.6008469178        4.8826196455       -3.2531175115
Li         3.6734885529        9.2070588418        2.4751044466
Li        -2.8946799408       -9.1639217287       -4.7330755879
Li         5.6307013335       -1.0883878554       -1.9964809895
Li        -5.7792359794       -3.8665954145       -7.5396437388
Li         4.4796113985       -0.0540495011       -8.5081479981
Li         3.4146849424       -6.8357494142       -8.3614353502
Li        -4.1843992217        6.0723882522       -6.1713428139
Li         7.4136760823       -3.7584073237       -3.8672500777
Li        -1.5888500439       -6.2698709053        1.3559769383
Li         1.9148328909        6.1941703086        8.2417065852
Li        -3.3444507822       -4.7434139997       -1.5738316489
Li         2.6623950143       11.0138905434       -0.7432436215
Li         0.7205647795       -3.6886681496        9.2346161076
Li         6.0308085190       -0.7904488198        1.8342656394
Li         2.3176015016       -6.8413262628       -0.2336531527
Li        -5.2910287298       -2.3212210510        8.1446340112
Li        -1.9585409697        0.3319260532       -6.1247148084
Li        -4.4303858653       -1.1906844879        4.7307543399
Li        -3.5668141533        0.8674975484        9.5818271369
Li         4.4175436428        4.8262146729       -0.4131662675
Li         4.3460573780       -3.8672911228        0.4040407733
Li        -2.4692326976        2.6426863762       -1.0770467788
Li         7.0207758173        1.9932178061       -0.5101562349
Li         2.3966953527       -1.4416345054        2.3773467747
Li        -3.4451073908        8.7983643450        0.5957972488
Li         6.8064254484       -2.0190031759        6.9940211685
Li         8.5243100084       -2.8773014000        3.6430983997
Li        -3.9396322141       -0.8530351683       -9.2259210343
Li         2.5266928991        5.9203229088       -6.6055897439
Li        -3.3641974642       -6.8591532708       -7.7567864916
Li         0.2457651196       -4.5246112561       -1.8342470670
Li        -9.2890047601       -2.3285448687       -0.7225947271
Li        -5.3203228945       -6.1565020614       -4.4906095768
Li         0.8834388201       -8.5552413144        3.1315973937
Li         5.1275039099        3.1167972101       -6.6556433685
Li         2.1385836001        0.1149446505      -11.4057861584
Li         0.7263232038       -6.2316880032        6.2967364182
Li         8.0242744873        0.8180733458        4.6461451273
Li        -3.6746862271       -4.4521034321      -10.6212544243
Li        -8.9832781417        1.6142910607        4.1637291838
Li         7.9912492971        5.5683888577       -1.0621379117
Li         4.3278000304        0.0747339514        5.1767345817
Li         3.4949504526        1.3441264786        0.1302956464
Li        -4.4372935093       -3.5653598589        1.7164132065
Li         4.0429403297       -4.6842885134        7.6355142261
Li         5.3047568955        5.8171498868       -3.8901843944
Li         3.2638972795       -0.8341679776       -4.9981240462
Li        -3.6036249165        5.3792447973        4.7690806752
Li         9.6211620259       -0.0631357861        1.2450042830
Li        -2.1943942166       -1.1284189112       -1.8615056076
Li         2.7480374952        5.6546550715        2.9309692483
Li        -1.9103168661       -3.3236447349       -7.5177929743
Li        -7.4177225207        7.0103968015       -4.3605624593
Li         1.7362618203        7.4735371229       -0.2484573922
Li        -6.9164380170       -5.2993185911       -1.0348151536
Li        -0.0415026350       -2.1117137121       -4.4207855187
Li         6.2163430618        1.6538681324        7.9504935007
Li         0.9683718284        8.2361372459        5.0888945445
Li         1.5729827666       -4.4614339599       -6.4774283052
Li         5.3547608774        8.3492551156       -0.9229043952
Li         3.4370791256       -9.8840694484       -6.1297969488
Li         2.1093754114       -1.5745157783       -1.4025502914
Li        -1.6124608197        6.2021515160       -1.5174973178
Li        -5.4066465301        7.8335671795        6.8725473026
Li         1.7915563858        2.1193060641        3.3373729893
Li         1.0038675114       -0.9859415296       -7.9045764761
Li        -5.2208542782       -7.0941748384        2.0544352960
Li        -4.9393270119        4.8221267620       -2.6997060069
Li         9.0103938544        3.6532917505        2.1863449458
Li        -6.1255573689        7.6066838676        3.1402222956
Li        -0.7504821326       -2.1671647675      -10.9432904778
Li         4.6468387484        7.2874483786        5.6855119222
Li         1.6298740120       -4.9917699278        2.8482811633
Li         5.4636876774       -6.8863963317       -5.1329161621
Li         1.5821223960       -2.5658809502        5.8164292926
Li        -2.3626920427       -9.7596165116        1.3867788140
Li        -1.8009071419        2.9577606583        2.6617639455
Li        -1.7133444239       -1.5278972852        7.3639106591
Li        -6.8019353521        7.3354200513       -0.6208053253
Li         2.4575514740        3.2824830424       -9.4426334976
Li        -5.4143062952        2.3300622235        3.4470475657
Li        -2.6986938252        1.9496432140        6.1419534473
Li        -1.5840414113       -5.7006677441       -4.7502653810
Li        10.5610210374        2.7563191902       -1.1883787636
Li         6.4235438228        6.5160198116        2.3391611517
Li        -0.9809551179       -7.9956804772       -1.7474166603
Li         4.0628371631       -7.1624045729        4.6872996967
Li         2.8550434987       -3.3633248886       -9.9542309684
Li         3.7642818123       -4.1467815464       -3.3376034588
Li         0.1361314245        0.0183801493       10.2552288226
Li        -1.7437010120       -3.9927291144        4.4430483967
Li        -6.3484941416        1.2309011367        6.9514078352
Li        -0.1197880000       -5.7159587798       -9.6494664064
Li        -0.6923875084        9.7579658637       -1.9786090396
Li        -4.5177793082        4.3808920614        8.2725375538
Li         3.5075422100       -1.0243954976        8.7183417069
Li        -7.0181855620        3.3819573247       -5.4138138349
Li         6.0656727401       -6.5263860404       -1.4195854022
Li         9.1868543567       -0.5081398271       -2.5412406766
Li         6.8200372189       -0.2785282882       -5.5163500439
Li        -4.5471317288        1.1469469660       -3.6956105758
Li        -2.5282300318       -7.5750977561        4.7150048578
Li         4.8623784469       -3.5362544478        4.1657194997
Li         5.4309488113        2.9041158968        2.8286311475
Li        -4.0766671260        8.4435837590       -3.1765953740
Li        -4.3196056647        5.1284465787        1.0310477332
Li        -0.8340990411        3.5709534075        9.0383200879
Li        -0.8690189052       -0.4354882067        3.9585499348
Li        -7.6516441413       -3.1281122781       -4.1818779789
Li         7.3342848245        4.5111928948        5.5512056370
Li        -8.2493256789        0.5312616317       -3.1252079015
Li        -6.4184503166       -0.2599606184       -6.4632707296
Li         0.5265651487        1.2993365749       -2.9448853734
Li         4.2093223405        2.2222302424       -3.2804807017
Li        -1.7604868808        7.0424659712        7.5877908267
Li        -1.8110178325        3.7031463487       -4.5645689509
Li        -0.8691357552        4.8067071979       -7.9002011449
Li         1.8695380407       -7.1499241354       -4.0271479943
Li         1.2102267358      -10.4269595412       -0.0626660129
Li        -5.3543632356       -4.8398638224        5.1867938797
Li        -7.2378100404        4.7554227192        5.5589618263
Li         0.8441755915        3.9713716711        0.1573963430
Li         3.6832318535        3.6965432801        6.0806850229
Li        -0.9766263836        1.5100761396       -9.6561527748
Li        -0.8382185786       -2.8364591664        1.0682233802
Li        -3.5532643190       -0.0416431108        1.3310741752
Li        -7.0848705045       -0.7805468010        1.9967351878
Li         5.1214225473       -3.5102540931       -6.9125780402
Li        -0.7687140664        7.3347974889       -4.9950487636
Li        -8.0122370418        4.5322082513        1.7859252952
Li         1.4174570106        2.2673103808       -6.2095271441
Li        -2.6123592126       -5.1451746516        7.8481608129
Li         4.0519473950       -9.5345047903       -2.3841025190
Li        -8.6071506167        4.2175889259       -2.0086083745
Li         7.3267698338       -5.6568398039        5.9738092843
Li        -8.0108348958       -4.3492929045        2.4431159282
Li        -2.5791565099       -2.6355473115       10.7782188367
Li        -0.9293773156        6.5172591634        2.2747343978
Li        -7.9810499258       -1.9373138339        5.4523420641
Li        -4.5937756012       -8.2969045421       -1.4147547375
Li        -9.6902959909        1.3567172404        0.3640082590
Li        -5.7360952789       -1.6897161631       -1.3560465181
Li         0.9926790455        1.0957245319        6.8159694898
Li        -2.7328632861        9.0025213420        4.3812930611
Li         4.5378152854       -9.0182189257        1.4284801605
Li         8.0508028579       -3.3434718268       -0.1406875729
Li         0.5520710736      -10.6260463626       -3.8375701444
Li         2.6048969437        8.4996838818       -3.6759048459
Li        -6.1067341480        2.0401743167       -0.3585310924
Li         7.8696285641        2.9650695418       -3.9309763167
Li        -0.0323904203        0.5545274209        0.5323392110
Li        -0.0254517710       10.0802841621        1.8290197684
Li        -4.1334965643        2.6693660593       -7.7264290768
Li         6.7915092739       -6.0638121811        2.2389298242
