18

Li         -3.3359559650       -2.8896728273       -0.1418464603
Li        -0.1277876744        0.1837895913       -4.8417446244
Li         1.2652923818       -1.6887835329        3.8789143768
Li         2.0439521926        1.6468832053        2.1172960565
Li        -0.6733843250       -0.6436702671        0.9628488991
Li         3.2641783934       -1.1818451787       -3.3824518247
Li        -2.6772573865        0.4146848973       -2.0082920051
Li        -0.0899778564       -2.5632750028       -2.1896193029
Li        -4.0999748082        0.4713190443        1.5706674345
Li         1.0792956293        1.0316701378       -1.5432474121
Li        -0.0200384772       -4.2246896225        1.2847285467
Li         2.8278901691       -1.8017346954        0.3601343546
Li         1.9996181326        4.3810758708       -0.5479969980
Li        -1.2562469760        1.2135094179        4.0556343521
Li        -2.5108457791       -2.4000510722        3.5901713799
Li        -1.3584161022        3.0167058470        0.6535281183
Li         4.5789875394        1.4122204265       -0.7287698178
Li        -0.9093290882        3.6218637606       -3.0899550732
