214

Li          6.3919933253       -2.6251538301       -4.6367455564
Li       -11.4100681680        2.4934882960       -0.8017274842
Li        -0.0750045388       -1.6507309152        1.3073277490
Li         7.2595012508       -2.2595922196       -0.7713945615
Li        -3.2544967684        2.5365554651        1.6764296099
Li        -2.9910382333        2.6209252754        9.8870879605
Li         4.8208473073        4.0281396969        6.6196096201
Li         8.4939174922        0.2661301692        5.2732176809
Li         6.8993116544       -2.2514760399        7.7397232167
Li        -1.7087197913       10.2626032999       -2.6929291449
Li        -1.1629725058      -10.9343776105        3.6266761953
Li        -6.3842469152        2.0528041973       -5.0482881179
Li         5.8014441327       -4.7407139464        1.7239413770
Li         6.9031423248        5.1821780811        9.4545478335
Li         7.0367598486        1.5072072353        8.6717301017
Li         6.6331752518        1.8856779626       -9.4490613843
Li        -5.4449051613       -3.9734054148       -3.6091684456
Li         4.3225860810        5.0208496298       -9.1249777327
Li         3.8717788708        2.4462064686      -11.9818909230
Li        -0.6669166253        4.5045656940        3.2081043392
Li         4.7026677349        7.4713882019       -6.0786623789
Li         6.5811280244       -6.0096919662        6.7063966591
Li         2.1551645883        5.0998739620        0.7880276518
Li        -8.1524087113       -6.5272517171        0.1458324612
Li         9.7875465828       -0.9511300579        1.8065457865
Li         3.6490862626       -2.3310161903        0.1887844958
Li        -4.4605604682        1.1972998938        4.9606444708
Li         1.4225709818       -0.2755507757       -1.6345854173
Li        -2.3916745793       -5.9630078968        5.2071020681
Li        -4.8069309272      -11.4502228017        2.7096560618
Li         1.4230659326        5.6719953506        6.0131535172
Li        -5.4732586848        0.0536598539        8.3827214430
Li        -4.4453713125       -6.2352677487       -0.7084031505
Li         6.1284645629       -0.9397910415        2.6263682176
Li        -1.1195536145        4.2637097345       -0.8133721652
Li         5.9515999603        9.5235781833        3.2541988735
Li        -6.3361263421        5.5947847983       -3.6739218566
Li        -0.0862783025        3.0483552134       -7.1887788091
Li        -8.2613844658        4.9306404796        4.6951604578
Li         7.1856881066       -7.5331053905       -0.4770266855
Li        -3.2293170432        4.3968834629       -5.4989588198
Li       -10.4774233257       -3.4845181380        0.6739671157
Li        -4.5378034329        9.5589354339       -0.1829291431
Li         3.0764741767        9.0943124911        5.7651220229
Li        -9.1037022630       -0.1008563332        0.5887370372
Li         0.0326871560       -0.7500651732       -7.4874079860
Li        -0.6437973290       -7.9647495866       -5.9491094540
Li       -10.4297053876       -1.4323261729        4.0441708750
Li        -6.7676502796       -3.1872539095       -0.0892177697
Li        -9.9863407866        5.3474300502       -2.9221216947
Li        -3.4309477961       -1.3017884508        2.3678423532
Li         0.9121457907        7.8586128744        2.8931662041
Li        -5.4697477965        5.2597087609        0.1661374555
Li         9.7458517884        3.6412246950       -3.8881202430
Li        -3.0490267543       -2.9482244126       -0.9335237150
Li         3.0369081125        1.5861818991       -8.4785660760
Li        -3.1571329112       -7.0132051210        8.6877033066
Li        -5.0563509017       -4.7395405709        2.7457655170
Li        -2.5322463553        7.0179767594        1.4441104326
Li        -7.7740884031       -4.9738058856       -6.3476970951
Li        -0.3162247194       -8.7690663507        6.7269940086
Li        -2.9678098667       -3.0082415897       -6.4940893263
Li         2.6989939197        2.9424592457        3.8323413793
Li        -1.7801816815       -0.0555961435        7.5272673077
Li       -11.3998873773       -1.1310586155       -2.2297130471
Li       -10.1216204672        1.7992039836       -4.3889666175
Li         6.1057702197       -9.6670579242        5.5451744423
Li         1.1963359507        6.6046284471       -7.5336557023
Li        -2.3056972516        1.9454890767      -10.0943460387
Li         2.2356332774        0.6525179320       -5.0199374274
Li         7.8484112152       -5.2625073277       -6.7771217435
Li        -3.2119373393        0.7802458544       -6.7866804675
Li         3.6451682465       -1.9796063880       -7.2344149477
Li         1.9715751017       -4.2555319518        2.7174999144
Li         4.9184373294       -0.0263392042       -2.4721145308
Li        -5.0986359154       -3.6765709688        9.2478465936
Li         3.6705533733        6.3773983448       -2.6360940583
Li        -2.1770395309       -1.9759077647      -10.0824690081
Li         7.0749228908        4.4029638345       -6.5348369820
Li         3.0293315621       -9.2318205025       -5.5992457926
Li         8.5087162891        4.0187513620        6.1436053541
Li         0.5936129562       -4.3438675782       -6.2611104308
Li         7.3827091110        8.3006459551       -0.0806216015
Li         0.6705058550       -4.1067723907       -1.1285491073
Li        -2.0057238821        8.0183625955       -5.8048065130
Li         0.2452434497        4.7362070028        9.4398401075
Li        -0.7997584475        0.9014475933        4.2218460452
Li        -8.5787507204       -2.4631863671       -9.1742311444
Li         2.5011147954       -0.6332828178        3.5086735956
Li         4.1844084588       -5.4880973715       -5.8790321505
Li        11.1416638137        1.6386967695       -0.7752364791
Li         5.7005765236        4.9546182466        0.2547633092
Li        -3.8870083293        9.8247930943        3.6232568722
Li        -4.2966896931       -2.5226455568        5.7896762106
Li        -6.8963573140       -1.3609536319        3.2553025077
Li       -12.7325645554       -0.4095911103        1.2544106875
Li        -6.7705748938        7.7237142870        2.4895676053
Li         0.3840743318      -10.1522911923       -2.9254447201
Li        -3.0983787398        6.7897923443       -2.3872792013
Li        -2.2341565986       -4.7675997551       11.6023646508
Li        -8.1213548006        1.2009568196        5.7682421078
Li         7.6051996709        1.5703559128        0.0067065137
Li        -8.5982405737        1.1033249136       -7.8557500257
Li         9.9273045954        2.8100080400        2.7098018416
Li        -2.7046075223       -1.1141045926       10.8656097853
Li         2.9015687393       -6.8172180199        0.3751305995
Li         1.4360509858      -10.3224429057        0.8157863737
Li         6.0643463958        3.3380123715       -3.0012799842
Li        -4.2668804301       -6.5561317019       -6.1980417172
Li        -7.7255107201        7.9308761749       -1.2255449971
Li         8.4810369545        0.2617373884       -3.3189679228
Li        -5.5211430867        0.1826876488       -0.1516409271
Li         0.6020061486        1.8600187996        1.1198499866
Li        -3.2026446065       -8.1548336783        2.1793428896
Li         0.3347424233        7.6972948048       -1.0203616435
Li         0.1645133826        5.4666391837       -4.1179684565
Li         3.7636906647        8.4020167583        0.4408174488
Li         4.4642633089       -1.0931672201      -10.7284445683
Li        -3.9998640304       -9.2542503097        5.7046230741
Li         7.3892781448        6.6815857835       -3.4385197400
Li        -1.0500796104       10.5306001649        1.1489119490
Li         4.3242086557        6.2447982443        3.5667673274
Li         4.0906933371        1.5162217550        0.6641489867
Li         2.4870222283      -10.3247861449        4.5915501629
Li        -1.5520294552       -3.6824698385        8.1280193537
Li        -1.6384665008       -5.6086238434       -8.8781835870
Li        -0.7389793087       -7.5281502633       -0.6254517976
Li        -8.5682959048       -4.7701040407        3.6328067697
Li        -3.2655930739       -8.8375399216       -3.2034304335
Li        -6.8381175799       -7.3582389225       -3.3946102011
Li         7.3135680140       -1.7278906036       -8.2191325093
Li        -6.3436368477       -1.5394734881       -6.3694838854
Li         5.0501388070        9.7082403106       -2.8830365108
Li         7.8901449145       -7.2477926451        3.2936633909
Li         9.2646888400        4.9691741246       -0.4231028989
Li         6.3220846583        2.7966561580        3.3734892844
Li         2.0208940481       -6.9387585836       -8.5331330227
Li         4.0631982857       -6.9226940624        4.1260973262
Li         8.2708876483       -3.5051187339        4.3226176222
Li         0.5746126972       -6.4128755764        9.6438537593
Li        12.0508802536        0.5671160905       -4.2567227102
Li         5.7973073497        0.9308123134       -5.9571313621
Li         8.0302694675        6.1961472784        3.0309649084
Li         1.8278080346       11.0738382258       -1.2801801285
Li        -9.2211244205        5.1677087119        0.9279886857
Li         5.0622835740       -9.5827377890        1.8315234034
Li        -0.8099353494       -1.8029914152       -3.9099474669
Li        10.8692516114       -2.0918842852       -1.7088710885
Li         2.3346808862        3.0926539069       -2.1926456543
Li        -1.6098747269       -4.8778732192        1.7380370142
Li        -9.1774375041       -4.2998179208       -2.8425870069
Li         3.6821088445        3.1209525709        9.9691933477
Li        -2.2364162450      -10.9100529524       -0.1258981337
Li        -3.2403174537        9.9865513455        7.4179621844
Li        -4.5649592826        4.9773163514        3.9383051989
Li        -0.3746829820       10.6152104825        4.9971354845
Li         0.8434466846        4.1161885538      -10.5229189547
Li         4.0359475307       -9.4051889711       -1.8918417948
Li        -5.9813577625       -5.9221957628        6.2637068904
Li         9.3679922745        1.2346123711       -6.8612961370
Li         1.5320974514        8.9435245464       -4.4391387973
Li        -6.9311076707        2.4544961166        2.3415843996
Li        -5.4627720182        6.9263204334       -7.0331164221
Li        -5.4714142179       -0.2385152809       -9.6700871441
Li         0.4779295385        1.0018142034       10.4144602044
Li        -4.1460977260        2.9771742061       -2.2682651041
Li         0.8953461502       -2.7149616576       10.6613223159
Li       -10.0130079364       -1.8381878278       -5.7208736612
Li       -10.5992000229        2.2790957414        3.0235985248
Li         3.7905318161       -4.3574354908        8.7542737476
Li         3.5226510746        6.7987901017        8.8363609421
Li         2.5136102445       11.1749941606        2.5425107709
Li         5.0190556570       -5.1001539658       -2.0612806936
Li         5.6687444101       -8.1130819055       -8.0279031015
Li         0.8632575509        0.2054125424      -11.0697576125
Li        -2.0050094637        0.4312445501       -0.8755532146
Li         9.9966276137       -2.3670706650       -5.5018875177
Li        -8.5734193814        4.6749832588       -6.4715007761
Li         8.7349158947       -5.0185830305       -2.9683309791
Li        -5.8028506481        7.5230610698        6.1985458176
Li         1.7936594707       -6.6818362777       -3.3438212742
Li         5.0506578368       -4.6377801618       -9.4156679287
Li        -7.7765631436        2.7527828345       -1.5442089867
Li         9.4665916335       -4.7026163412        0.8398569085
Li         6.4883263486        7.3652209352        6.3750680723
Li        -5.4801852392        3.3838398069       -8.4289517178
Li        -6.7068195314       -8.1307562062        3.2097726947
Li         3.9773244831       -0.6039053068        9.6601241415
Li        -0.8167733050       -2.6649828161        4.6797286385
Li         1.4078333966       -3.3999792969       -9.8766399731
Li         1.2731389750       -5.3551875563        6.1716515367
Li        -3.1577357307        6.3546264233        8.7422867607
Li        -4.1635857553       -0.5493738062       -3.5860011327
Li         6.4728445880       -7.8333136278       -4.2653470474
Li        -7.8448333026       -2.5393318377        6.7086597387
Li        -1.9805748400        7.2091554433        5.3170716883
Li         1.4865915617        1.9959617002        7.0793581726
Li        -5.2113162209       -4.1308970987       -9.1042554529
Li        -5.2576712558        9.2249436050       -3.9618104404
Li        -5.6923167144        3.8024382368        7.3590288749
Li        -0.9521740815        1.8985767408       -3.9139068967
Li         1.6512821143       -1.6580374433        7.0906803061
Li         0.1182515803        8.4004339739        8.1709219101
Li         4.5273213614       -3.3069333820        5.1523264284
Li        -2.3015240669        5.6008029714       -8.8440057482
Li        -1.8932962342       -5.3679154941       -3.5517512686
Li         3.3760387607        4.0736848789       -5.6463417042
Li        -7.7832823228       -0.8280999592       -2.9258405567
Li         2.7852872317       -2.8477429014       -3.7498476646
Li         3.3820215530       -8.0459464288        7.6265994395
Li        -1.9480912311        3.6155849731        6.5153460498
Li         4.7878093259        0.3855084244        6.0649063775
Li         0.4212849506       -7.6038113456        3.1793826631
Li        -5.8430525615       -9.5593486328       -0.3674206231
