235

Li         -4.4004364980       -7.3100426349       -8.6455750466
Li         -4.6176821254        8.9672567285       -2.5606688125
Li         -2.4376192642        1.3151177029       12.0056726997
Li         -6.1066737728       -3.5984802864        9.4061911526
Li        -11.5686166526       -0.8771229570        2.6157321137
Li          6.7215754536        1.9969769212       -1.1223870241
Li         -5.9543081388       -8.5755990790        0.2231263368
Li          6.1986031451        4.3304964999        1.8770000755
Li          3.8672583958        1.5128816569        1.2398543833
Li         -9.1281912938       -1.2713904041        8.8094739999
Li          8.6960897824       -3.5957864459       -5.4416954098
Li          3.6626873206        6.0910972320        4.1723797220
Li          3.1576151737      -10.1752371576       -3.1980533022
Li          9.7238818631       -0.0690655488       -6.4676319902
Li         -0.3759153984       -4.0513315542       -0.6229361347
Li         -0.2046164619       -9.7785137772        3.7889500033
Li         -0.1061834699        4.8839074387       -6.5994508671
Li          3.3860746466       -7.1661018223        1.5865082744
Li         10.4749055335       -1.2580340224       -2.8787054039
Li          2.4513807048       -0.2829760041        4.1845938493
Li          4.8000893328       10.8271402088       -0.9961793435
Li         -6.2997865633       -0.6344053161        6.7902234927
Li         -4.3702425017       -9.8373161375       -2.9375721022
Li         -4.0249232681       -1.2631075375      -11.2088134706
Li        -10.5958782596        4.3598040738       -1.1698473511
Li         -5.0800548128        3.1173236940        6.3942157981
Li         -8.9419638098        6.2619002240        1.7567382211
Li          1.5944715412       -4.4574895625       -7.5791458515
Li         -8.5441254163        4.5263866762        5.2125992841
Li          1.2288781391        7.7926797040        1.8334325077
Li          1.8927371224       -9.6278582056        7.2267968990
Li          1.5661290497       -9.7238042579       -6.5412257210
Li         -6.2345233912        6.9414214490       -5.4688499835
Li          4.4081952876        6.8257831933        7.7977232643
Li          3.1900079521        5.6820133302       -4.8893364877
Li         -1.0002162756        0.9727032846      -11.8861136689
Li          5.4242898496       -9.5409572808       -6.5103906733
Li         -1.5858116931        9.5223115341        6.7312607128
Li         11.6463618386       -3.7258768576        4.3474809291
Li          0.1868657241        8.0830271635       -4.7373539050
Li          2.7043751675        5.6917598341       -9.0634671587
Li         -0.1851692189       -5.1457266719        7.6387992185
Li         -6.0774414374       -9.6953392192       -6.2636381423
Li         -1.8898436028       -5.6034154712        4.4986494912
Li         -6.2231774681        0.3554899925       -5.2812060156
Li          5.0866977013       -4.9505759765        4.1286249722
Li          4.9685093716       -3.1441330251       -6.4413066431
Li          2.7844928562        4.7180382229       10.6197582985
Li          2.1617916225       -3.8642667939       -3.9007947420
Li         -0.0139876581       11.2071265294       -6.7610534022
Li         -2.3524894837       -9.8865695403        0.4098934873
Li          7.2220746580       10.7129041053        1.8697777470
Li          0.6590601235        2.0147388919       -0.4905713125
Li         -4.2567592163        5.7697292208       -0.6154952932
Li         -3.8539528246       -8.5856144386        3.6118049233
Li          7.8683246426        8.4053695282       -1.1274338220
Li          6.5568386501       -0.5042506722        9.0106236530
Li          1.4361701753        3.3915111609        3.3691712339
Li          3.0740251016       -6.2155123698        8.9084437970
Li          8.5327205297       -5.7913778318        5.3929646563
Li         11.1182610480       -2.4850456723        0.7427135945
Li         -2.7334740379       -4.8859155322      -11.0389686972
Li         -0.4189158414       10.6521258435        3.3329615406
Li          9.1710582275       -2.1291732176        6.7077830723
Li          0.4771965621        1.9309146844        9.7735198118
Li         -8.1735460718       -1.6720198169        3.8161738362
Li          8.4264975943        6.0346461386       -4.1644070935
Li         -3.9828446133       -5.7039217013        1.2721819715
Li         -0.7288277415        4.4919503547      -10.2951455871
Li          5.4950461704        8.6232093832       -4.0966870822
Li          8.8070473385        1.0675552500       -9.9582862309
Li          1.4378653352      -10.1243071520        0.3154626468
Li         -2.2419721110       -4.4371384082       -7.4305144512
Li          5.4363497098       -0.1823520648      -11.0477349573
Li         -5.0685401867       -3.5596402123        4.2261363372
Li         -2.7767444980       -2.2820989826       10.9790487528
Li          6.1417299700       -4.2119512038        7.8352278993
Li          5.2759142792       -7.8141444492        6.3469306051
Li          3.4218049955       10.7785549367        2.6134283208
Li          1.0811699692       -5.0233509171      -11.2320648772
Li          1.3568293530       -7.0982720769       -1.8854308620
Li          3.7522835267       -6.6996120991       -5.2401336922
Li          6.8560688561       -8.1233755057        2.8706304441
Li          0.3637107474       -4.4737511313       11.2106315169
Li         -9.6081981361        1.1919284746       -6.4698377715
Li          6.1230233038        0.4558499735       -7.4148389891
Li         -4.5897516434        3.7082225262       10.1028192791
Li         -8.5153718630       -0.1063614448        0.4876381075
Li          3.0287179746        2.6846397538       -7.0362138716
Li          5.0171976082        7.7840055453        1.1751597479
Li         -3.8285331203        6.7748674413        5.7982241645
Li         -1.6956369150        4.3201146734        7.8056989081
Li         -6.8176720994        1.7446111549        3.4939440336
Li          2.3913476281        2.2038427765      -10.7619935955
Li          0.0536499934       -8.0697827082       10.1369496030
Li         -5.5532706142        5.2502837292        2.9213860505
Li          5.7878665596        3.4050743061       -9.5528328199
Li         -2.0637014366       -2.7776590734        2.1603539044
Li         -2.9745839854        0.6466696914        8.3722380113
Li          5.0028710335       -7.3307547686       -1.8527990334
Li        -10.6780911216       -3.0080520743       -0.4442777226
Li         -0.1981544402        1.3704731457        6.1634452237
Li         -0.1014704495       -6.8371760836       -5.1917921868
Li         -0.5757047527       -7.4427487457       -8.8833708869
Li         -8.1136055620       -4.3114161083        6.3443175233
Li         -3.5538390552        5.7949973420       -7.9983729957
Li          3.4905795023       -2.5604122159       10.1278917279
Li         -6.6357815698        3.5299129685       -7.3046340858
Li         -1.4712236877       11.0489844145       -3.2139425843
Li          6.6181383547       -5.1372828294        0.6367151708
Li          2.6031109014        7.9326447840       -1.7858291880
Li         -5.6943565558       -3.7066108058       -8.7890713846
Li         -6.1065495322       -5.7888910798       -2.2779126063
Li          7.7764038587       -2.4724785777       -8.9177657847
Li         -8.8492935631        1.5143989269       -2.8481997603
Li          9.6165695235        3.5583806301        3.1226858044
Li         -2.2875294164       -9.7602146140       -6.3996152883
Li          4.2307254166       -0.8783438666       -1.5317994866
Li          3.3593546694        2.5548719205       -2.6807506228
Li         -2.0980462544       -0.3531220718       -0.5075128027
Li         -5.8438336135        0.0234339014       10.5245078622
Li          9.1122458842        4.8380415177       -0.5181991703
Li         -2.8023600633       -0.4182188681       -4.0427233775
Li         -0.8574460535        0.7994176726        2.6112903414
Li         -7.0951473220       -6.5898737451        3.3318830524
Li          7.6511855222       -7.0967037268       -4.3654459524
Li          0.6805144810       -0.9974136552       -2.5757589949
Li          6.8353388909      -10.5608983378       -3.1724083909
Li         -9.8687112472        0.9780027061        5.6780779110
Li          5.9192886772       -3.9492958328       -3.0124425712
Li         -3.2641737924       -2.9552437360        7.3035020891
Li        -10.2773962263        2.6951813299        2.2566698178
Li         -5.4499135582        0.6046589231       -1.6640677041
Li          1.5345603628       -4.0779691097        2.9286343537
Li          5.1864427167      -10.3131032935        0.2503904092
Li          0.9504968188       10.9605261321       -0.2740460143
Li          7.0010175653       -0.4743077683       -3.9711597014
Li          8.4888642080        7.1820637008        2.5000158282
Li          0.7013012691       -0.8483146710       12.2738455511
Li         -3.1514684869        9.1435251693       -6.1387545526
Li         -5.3412572985        9.6983591503        7.5623410662
Li          6.6366598380       -6.0436906514       -7.8083719228
Li         -0.6433018731       -2.0626837838       -9.7677790180
Li          4.8032335196        2.4636530969        4.8637363306
Li         -2.8858018763       10.7969523353        0.4046820400
Li         -7.1697922885       -3.7914846395        0.8145117809
Li          3.2893046446       -7.3628206283       -8.9725183237
Li         -5.0976228934       -3.2594568486       -5.0805564869
Li         -0.4834204537       -2.1276347246        5.2170447758
Li         -2.5719975780        7.6114189648        2.4242125564
Li         -0.3995096412        7.9336461441       -8.5807670659
Li         -3.4515905288       -0.8385725629       -7.6052658671
Li          8.2445580547       -2.8781165840        3.1298264611
Li          3.5632320018      -10.0477627144        3.7548226808
Li         -0.3585116092       -6.9488931072        1.5233419458
Li          5.8011880000       -1.2471600113        5.4682727491
Li          2.8054129346        4.8920869563        0.3369555545
Li         -1.2049981540        7.9316245371       -1.1437439316
Li         -2.4134629950       -6.9096511753       -1.7421462975
Li          4.8267038120       -2.0549551365        1.9781090054
Li         -9.1959503386       -6.6384555786       -0.0947941186
Li         -3.8561145019        2.2996862173       -9.6945001819
Li        -11.3174773724       -2.4735288174        5.9888132651
Li          8.3674113918       -8.2625857827       -0.6655763052
Li          1.4105836950       -1.2704525567        0.8840821651
Li         -0.0798344815        6.4854060685        5.0182544840
Li          0.1177722011       -1.5915879412        8.7377630804
Li         -0.5904807345      -10.0188069440       -3.0564262007
Li          8.8144181402        3.5956966510       -7.1642221102
Li         -5.8804399442        3.7927201272       -3.5368631415
Li          2.1777361418        9.2173997629        5.8071661271
Li          4.4427152171       -3.8092478185      -10.1293845343
Li         -2.5092759764        2.8826614678       -2.2289592397
Li         -9.2574684374        4.6692124700       -4.7644628527
Li          0.4379209721        5.0230839635       -2.6142101784
Li         -6.6659701888        6.1331161155        8.0641469691
Li        -10.9701982797       -1.3594357782       -3.8469224100
Li          9.9951945693       -5.9960617320        1.8462802678
Li          8.2180194713        1.5830538176        6.1647864459
Li        -10.2529825203       -4.5595930924        2.9921765026
Li         -7.6726143446        6.7197035424       -1.8813429188
Li         -8.0245153194       -8.6033260584       -3.2196084280
Li          2.0511661215       -1.4167818086      -12.1948787994
Li          7.1364652873        5.2618245596        5.5457519372
Li          3.0270297866        8.8193061053       -6.9876223125
Li         10.6761600275       -0.0889153995        3.7403924159
Li         -3.1981755947        7.2689484819        9.4685419708
Li         -3.2060896678        2.6800980156       -6.0058726385
Li         -0.9725239448        4.7910219596        0.9501106984
Li         -3.0263125763       -5.8848888627        9.7941706050
Li         -7.5701091958       -2.1795602352       -2.5720690639
Li          5.6039050533        5.5081611522       -1.8987643877
Li         -1.0268549848        4.8600708544       11.4151247249
Li         -5.9809087828        8.6171348613        1.0699307386
Li         -6.8601268032       -0.0129882810       -8.9070840566
Li         -7.9289206371        2.4557328610        8.5211474568
Li          2.8085315192       -3.2922324371        6.4870091713
Li          9.4247015397       -4.7876835444       -1.8330357871
Li          6.0796037546        3.1398824081       -4.8823341241
Li          0.6171857947        7.1452047770        8.7066830229
Li          2.3780926597       10.9994746829       -3.8716977007
Li         -2.3132548287        3.7669045815        4.1870001686
Li         -3.8952108353       -6.7878159298       -5.0331305378
Li         -5.1161135706       -0.9500691383        1.6222485329
Li         -7.2296311032        3.4338704317        0.0388011103
Li         -2.8640415493        6.0082960885       -4.1842300767
Li          0.2379977097        1.9232708637       -4.5590540392
Li         -7.1980812060        8.0660783869        4.6876600182
Li         -4.2127123333       10.3923920943        4.0324706572
Li         -9.6248072292       -5.0246204178       -3.5325181994
Li         -0.3905307067        1.4510507812       -8.2473580656
Li          3.2199871997       -4.2269492003       -0.4886399173
Li          2.7337018131       -0.8499818900       -8.5928660305
Li         -1.7873024605       -8.4326790876        6.9096931622
Li          5.9979134368        6.2615688196       -7.1104249505
Li          7.2667245657        0.7454198416        2.5197958566
Li          9.5431682694        2.4145122819       -3.5304952765
Li         10.1848571591        1.1885274441        0.1111784810
Li          2.1147094128        4.0616754370        7.0188889086
Li         -7.2914242531       -6.1353340835       -6.2336693088
Li          3.1734113690        0.3799215076        7.6876420492
Li         -4.0592897741       -3.1029811218       -1.3375669143
Li         -3.8565002289        2.4455484417        1.2007559737
Li          5.9128545755        8.8532218402        4.8658059215
Li         -3.5444851191        0.0353196025        4.7012031133
Li          1.7957068658       -6.8482897480        5.0556240208
Li         -8.4793830396       -2.5004602116       -6.3992696320
Li          7.6883489887       -1.6568488799       -0.4413474592
Li          0.0268892551       -1.5214329811       -6.1499998029
Li         -1.6240581108       -3.8692102660       -3.9028228103
Li          3.8443379035        1.0949880253       11.2264944069
Li         -4.9711558306       -6.3753173036        6.6214586700
Li          3.3698337789       -0.2770323651       -4.9811055154
Li        -11.8568497734        0.7555801847       -0.7778424167
Li          5.5775416698        3.2040698909        8.4722737963
