251

Li         -0.6165116708        4.4118387031       12.9946074811
Li        -3.2743931363        1.6705372150        8.1275768968
Li         0.2109294922      -10.4452219515        4.8001586599
Li         5.5417864516        4.7552336273       -4.2848147429
Li         3.0930166049       -7.1740341970       -4.3186007430
Li        -5.3525135189        2.8189098030        2.2087176298
Li        -3.3278699513        3.4733211518       -9.5862499380
Li         0.1182335533      -10.8132030809       -1.8981659895
Li         3.3013742976        2.5618591396       -6.4669649900
Li         2.7542454791        3.5697821694       11.4118405479
Li        -5.5835879311        0.4364570638       -0.7436163613
Li         0.8630230618       -3.5417030418        7.0706299904
Li        -2.9672989390        1.0556672804        4.6517892204
Li        12.0633629683        3.7646266425       -1.3726958369
Li        -1.5489699083        8.5488721604        7.8767131663
Li        -6.2735191769        0.3020091189        9.9986895314
Li         4.0175691185       -9.6791616876        4.7095784143
Li        -7.5773240454       -4.5069535385        1.7863160618
Li         5.7080054258       10.4861417157        3.2285777120
Li        -4.8795986832       -6.8476870535        7.2915003869
Li        -2.0740075184        0.0162215252      -10.8564478312
Li        -5.2124698891        7.4191870382        7.4773370908
Li       -11.5557690693        1.3656945378        1.8283419981
Li        -4.6972664535        6.5395648922        3.7840651355
Li         0.9234540576        0.2872424738       -8.4631316022
Li        -0.7393184587       10.5220426167       -4.7564853615
Li        -5.7234091246        3.4657523916        5.7373633614
Li        -5.9714729371        5.9160705632        0.1852897340
Li         2.0846166685      -10.3162494157        1.4245968078
Li        10.3164905980       -6.4107189292       -2.6939783929
Li       -11.8307297766       -2.3610041291        2.5838904168
Li        -0.0932015702       11.0235684500        5.3961954094
Li        -3.1558008983       -4.9891593283       -2.7545352403
Li        -4.4185103122        9.3519477971       -5.2009039576
Li       -11.0838334358        3.7936465713        4.7995263719
Li         0.0249608907        2.7409479490        5.7531033334
Li         6.9708253645        5.4324745403       -0.6366973565
Li        -2.0771198812       -4.8709235678        9.1169444394
Li        -2.6556118729       -2.0138211136        6.7414194064
Li        -6.6470049443        8.7744682633       -2.1043069464
Li       -11.2246658006       -3.6467351693       -3.8175498317
Li        -6.1988077408        0.9979981611       -5.7001880945
Li        -0.3568584065        3.5214737738        9.3842251833
Li        -2.0687011630       -1.6811024766       -1.5570380550
Li         6.7408267991       -6.9833406265        4.2146092574
Li        -9.0867370057        5.7622785007       -2.0321489136
Li         2.7019411972       -4.0430560444        0.0734261023
Li        -1.5441248425        7.0421630692       -5.9190057447
Li         9.2287863899        1.1023119797        3.9156163205
Li         9.8631975186        2.9669346051       -7.0046358864
Li         1.2250552961       -6.4842908767      -10.5658505954
Li        -8.7895337165        2.0534128450        7.5426567855
Li         2.0252289938        5.9417846564       -5.1379001586
Li        -9.2231814490        3.2662122037       -5.0054385408
Li        -5.9919533445       -5.8559909014       -8.4125863721
Li       -11.4501812771        0.0669365115       -4.8283646248
Li        -0.3388254837        1.5033680492       -1.3465697453
Li         3.4701881681       -8.1010657147       -7.9943986266
Li         0.4350809236        4.8376891097       -0.1352782801
Li         2.2061693882        9.4300661449        8.1089871988
Li         4.2524187567        6.1506661865        9.0561706066
Li         6.8071923319       -0.8277965752        8.4328018930
Li        -8.8398405205       -7.9152123651        0.7257329578
Li        -8.3822626992        1.4445759368        3.8527591919
Li         4.8974687920       -5.3902422534      -10.5064273416
Li        -2.4224834842       -6.2379555127       -9.8416318025
Li        -1.9698273799       -5.5697451661        5.3698571473
Li        -3.2182836953        1.2293265310       -3.5374604925
Li         4.5361082614        5.3655402207        5.3195343374
Li         1.4198130537       -1.5174801318       -2.3082425933
Li         0.7988474123        6.8962866142       10.5486819586
Li         3.4730855828       -0.0307454779       10.2631600623
Li         6.3252619630        2.0027834543        5.9869228357
Li        11.8129623653       -0.1295983972       -0.5568854107
Li         7.9248603464       -3.9345912333       -1.6536963084
Li         1.7900998660       -2.3006172885       -5.8917529562
Li        -8.3690532110       -5.2601087459        6.8218324709
Li         5.1165282524       -1.5439888850      -11.2203016690
Li         2.1814247293       -3.0673395495       -9.5370679480
Li        -2.6676335341        0.6451989639       -7.2018876053
Li         5.4047628718       -1.6019641591       -0.8026921442
Li        -5.6005292789       -3.3105296110        8.6943205648
Li         7.9028013248        8.8130227971        0.4722060100
Li         7.1504209829       -7.0153704017       -7.8995643642
Li         8.9444474713        3.5424931689       -3.3441929707
Li         0.7742105480       -5.5882222679       -6.9612725582
Li       -11.1565998217        5.0720024450        1.1211588847
Li        -0.2992313845       -8.9142212518       -7.9384578486
Li         0.4082434308        1.9525683219        2.1823012247
Li        -4.2565911544       -8.3696626998       -3.9507129178
Li       -11.4038494884        2.6286152130       -1.8872401100
Li        11.0877121699       -2.6530790956       -3.3763206190
Li         4.8039468755       -7.1525590567        7.5546655231
Li        10.3708370679        4.4394041327        4.9456929059
Li        -1.9285582355      -11.1646489228       -5.2078809272
Li         3.3449262613        1.9613540927        4.0714658626
Li         0.1880368481       -0.0062180244        8.3060619165
Li        -0.3095653535        3.6851379425       -7.2509211612
Li         3.5451799608       -0.7896897534        6.5778863649
Li        -0.7283166390       -3.4683373000      -11.9777458505
Li         7.5370075306        0.7500097085       -9.2249826298
Li         3.9479614666        1.9502023951      -10.1198766668
Li        -1.3613917290       -8.3905355951        7.6998441074
Li        -2.6877960114        0.4759134156        1.2192721100
Li        -3.1560342306        3.6652927971       -0.6079927889
Li         6.1363099355        2.7626421814        9.6960634330
Li        -4.8597742571       -2.4720853591       -7.0713522896
Li         7.5899506801        5.3654089806        7.2793077273
Li        -9.2611098798       -6.7695308582       -3.0068199492
Li        -5.3088995326       -9.4957742486        1.1441974807
Li         8.5311277131       -0.2212722962       -2.5270407053
Li         6.9514349023        1.3918302867       -5.5645981330
Li         8.1109285432        7.5227437427        4.0719147863
Li        -2.8236049559       -5.6482936450       -6.2812157677
Li         4.9976580290        7.5905363136       -6.6350573196
Li         9.0808808081        2.3210576124        0.2790030969
Li         2.1501910187       -9.8573346831        8.0372775207
Li         2.6234736971        8.6426527709        4.5228634831
Li         6.4806786164        8.2783096630       -3.1179040529
Li        -7.9398729453       -2.6933875771       -9.1382003094
Li        -3.6700113997      -11.3604392907       -1.7957423838
Li        -8.7179861805       -1.0108626625        0.9043329697
Li        -8.8178806171        8.1271880762        1.0066940710
Li       -11.7206952078       -1.1118691237       -1.1236738663
Li        -0.1252162428        7.6955809687       -2.4353834330
Li        -5.4165654203       -4.0127896984        4.9408034064
Li        12.4680042907        1.2808803888        5.7445929655
Li         4.4906958626       -4.6435555612       -6.9080287014
Li         2.7022065669        5.3965088132       -8.8593097541
Li        10.2028820637        5.7481006940        1.3672985544
Li         0.3084401141       -0.7539661138        4.6932282436
Li         4.3449423074       10.0425498154       -0.3987940018
Li        -1.0821062919        7.6544948934        4.1958777279
Li         6.8236486426       -6.2318071767       -4.2966497109
Li         7.6525186354       -9.0974087151       -2.0577379562
Li        -3.8134897066        9.9835540646        5.0002565318
Li        -8.3908378259        2.7677051727        0.2170402427
Li        -4.5347415184        6.8628884586       -8.1832316633
Li        -2.3933896934        7.1783467781        0.6453954738
Li         2.9377412562        0.7269770321        0.0038760575
Li        -2.5669323326        5.0817910384        6.6529606799
Li         4.8916193315        7.1854956995        2.0228422791
Li         4.1007717025       -3.8483407939       -3.3054809680
Li         6.9575155768       -2.4317779282       -4.9826938291
Li         1.9306595276      -10.5213556615       -5.2885038835
Li        -5.6746040064        0.3943070956       -9.4435798387
Li         5.7098082247       -9.6098276035       -5.3418398559
Li        11.8835845751       -1.3520447570        3.0378778195
Li        -2.5098302406       -2.7184464388        3.0653296167
Li        -1.5742459583       10.6339985401        1.8774083705
Li        -8.0700969417        5.1986079771        3.1868927515
Li         3.0404058353        2.7844045068        7.7522049203
Li         0.7006999660       11.1071344379       -1.2238011950
Li        -2.3269543967       -8.0655662828       -0.7804668758
Li         5.8614044353       -9.4237686767        1.3303311467
Li        -4.0080168253       -8.9594581265       -7.5816106346
Li         4.6337098539       -0.8271495854       -7.6071641970
Li        -6.2978090232       -5.2027476109       -4.7166904032
Li        -1.0323941159       -4.7530642157        0.2157546096
Li        -8.0536136867       -3.3239695733       -1.8594999893
Li         3.3932875609       -6.8589869599        2.3833066269
Li        -3.3571478898       -9.0093045376        4.4540659631
Li         1.4164811050        8.7622198926       -7.4661311906
Li        -4.7906727819       -3.0903439003        0.1173086925
Li        -7.1743970160       -9.8274650730       -2.1991952830
Li        -7.4738991936        8.7076513202        4.5687817143
Li       -11.7583003543       -3.5836919928        6.2557044246
Li         9.9660191863        6.9366087605       -2.2291367783
Li        -2.1603536923        9.8544214095       -8.2385029239
Li         0.4085774464       -4.7208665660       -3.2466606318
Li         0.0825853514        0.8061738966       11.9301504370
Li        -3.0183959474       10.0690593164       -1.6721286297
Li         4.1662852228       -3.6193319714        8.9745410753
Li        11.6366353193        1.1282572451       -4.1126144477
Li       -10.8818662683       -4.7812910952       -0.1150702933
Li         2.8937015604        9.4706605281       -3.9660997084
Li        -2.7733094849       -1.2824294833       10.4200935095
Li        12.2527440672        2.5019419070        2.1933934966
Li         3.9031741221        3.9412451958        0.9776246939
Li        -3.9083063487        4.0438799214       -5.8555165634
Li        -3.9562779831       -6.1206286362        2.1200107472
Li         6.3069816729        4.2045600266       -8.0118140086
Li        -9.1785103486        0.7158916484       -7.8632397448
Li        -8.3476621364       -2.0567542755       -5.5050383481
Li         7.4323606860       -4.3781074715        7.0123577218
Li         8.5344486054        6.3556249845       -5.7546600601
Li        -5.1905757047       -1.8716774966       -3.5027072996
Li        -4.3873953982       -3.0655845105      -10.6710180067
Li         4.1483903234       -0.0625709474       -3.9397747342
Li         1.5482254163       -0.3725189188      -12.0433561626
Li         7.1292699700        4.1981587028        3.0133167134
Li        -0.6230781226       -7.9526180513       -4.2498435562
Li         3.9220769226      -10.0448972363       -1.9712378293
Li         0.3319763408       -1.5215607063        1.1477303547
Li         9.6735413331       -4.7511774026       -6.1106642325
Li         5.6597584112        8.6794849541        6.6317398458
Li         1.2897920870        8.2269878170        1.0612617469
Li         8.5935058962       -6.7219785106        0.8027718172
Li        -5.2568550957        9.4708549325        1.4544572689
Li         1.5201085289        5.2655569507        3.3460818293
Li        -6.1885718264        3.4971586478       -2.8076228455
Li       -11.4010997037        0.0907697012        5.5323041948
Li         9.8082836569       -0.9087026609       -6.6375333485
Li         1.5326274355       -7.0490629074        5.7155392801
Li        10.0098471504       -1.5661699674        6.4280151270
Li        -8.7099286120       -2.3209347539        4.5190098337
Li        -0.9356608187        4.2544550697       -3.6192423144
Li        -9.0486146538       -1.6879257806        8.1636905837
Li        -8.4800496926        5.7464373509        6.8203232412
Li         1.4342304594       -7.4351368223       -0.9015811828
Li         5.9220042326        2.1087646099       -1.6605591733
Li        -2.1161168234        4.2470515652        2.9482150188
Li        -6.8641034045        6.3615124490       -5.1444113007
Li         7.4453804156       -3.1525491499       -8.7069584934
Li         2.1361740810       11.6024762084        2.3129862365
Li         8.6680890133       -1.4582554897        1.1199360147
Li         9.3676132506       -4.1927324551        3.6562491962
Li        -1.3388322584       -2.8349334488       -8.4761181309
Li        -3.7950062578        6.5280494079       -2.8802529281
Li         6.0645923204        0.9230469330        1.9422008616
Li         0.3307112539        0.9129891533       -4.8716250014
Li        -6.0054899237        4.0663010408        9.3050438834
Li         6.0706455663       -4.1396438946        1.8501942646
Li       -10.4016065073       -5.8387879448        3.5843080542
Li         5.1851428940       -6.5683634602       -0.9656879292
Li        -3.4500052985        2.3480646290       11.6608112469
Li         0.7863722904       -2.7869346336       10.7051868305
Li        -6.0316791418       -0.3132580725        6.4022371514
Li        -6.8856233598        3.8030064859       -8.0562732445
Li        -8.5423466074        0.3323082601       -2.7076338860
Li        -0.4055822713       -7.6204656375        2.4772068440
Li        -1.7146896969       -2.2248146596       -4.9955625916
Li         3.5324870167       -1.5674594128        2.8441816216
Li         4.1808505552       -4.3371124170        5.2226234678
Li         1.4769521403       -6.3563142546        9.4059568358
Li        -7.4156429523       -8.5314675977       -5.8793621429
Li         3.4719632282        6.5971407891       -1.6149889750
Li        -1.7360273340      -10.9488332580        1.5059279228
Li        -5.6828314882       -0.9062534099        2.8487335686
Li         1.1393584823        6.0808323025        6.9457141391
Li         2.5802061122        3.1396577493       -2.7725834584
Li        -5.9882289429       -6.4793801150       -1.0699612732
Li         9.4255262902        1.9917389119        7.8213427343
Li        -2.9372230877        5.9646419070       10.3137771157
Li        -6.8919227833       -7.4582175483        4.0373523758
Li        11.2019981877       -3.9489995635        0.2162252061
Li         0.3131324735        3.0752012994      -10.8585292778
Li        -9.4069502201       -5.3923248312       -6.7111017907
Li         0.9272691482       -4.2668915439        3.4167952441
Li        -0.9280261084        6.5000401886       -9.5844845577
Li         6.7478611960       -1.5842011578        4.6532806633
