261

Li        -12.1919100689       -2.3347814152       -8.2999067354
Li        -4.1266075659       -5.4992614866       -5.6720525741
Li         1.8715846622        8.7108398898       -1.6124163295
Li       -10.6303639599        5.7053836048        2.8151127406
Li         5.4447878121       -2.0358327561        3.1656137302
Li         4.9678881214        2.7697859893       -5.7289253721
Li         2.8433476700        8.2677840050        2.0978282976
Li         5.4163129336        4.1412611495        5.8938599173
Li         5.7755082740        0.2455662825        9.4720367264
Li         4.1202809204        1.8740572190      -12.1220397301
Li        -0.0062060654        7.0374403421       -4.5592323102
Li        -1.9198137726       -7.7383017091        7.8436420363
Li         5.6673674885       -6.7847519122        0.9158763816
Li        11.1076087747       -6.3346276501        0.9905695474
Li        -4.9648371324       -2.1777445310        5.9348826504
Li        11.1849580728        4.8932603001        2.7477335156
Li         6.9018915883        0.3997010484       -3.3796300481
Li         3.7719575898        7.6051167673        5.7831904531
Li         9.6649464924       -5.3413469080       -5.0120227536
Li        -6.8203264681        3.8284289124        8.0348138408
Li        11.8065433182        1.2490733040        2.1215954167
Li        -8.1195630785        2.3688171357       -2.1038163850
Li        -2.8581219653       -4.7677731121       10.1309576364
Li        -9.9524670196       -0.8290580996        4.3981080694
Li        -7.4510279112       -8.5895219741       -1.9509984840
Li        -0.0058794514       -6.3728933042        0.7427149273
Li         3.7497801683        2.2643576481       -2.2657765677
Li        -2.3491856679       -2.0336210607       -6.8087927007
Li        -4.2569413674      -10.7590092193       -1.1569931911
Li        -9.6356573319       -7.5097135986        1.0080726511
Li        -5.1194521444       -9.8282194553       -4.7840638527
Li         2.7466229531       11.6172859113        0.7243335581
Li        -6.7514193495       -4.7181271635       -2.9208105469
Li        -6.1252140800        9.6347882143        4.7568409969
Li         1.6408216614       12.0293262151       -2.9880923453
Li       -12.6438055995       -5.4310013578        0.3250380108
Li        -6.9513648692        6.9829124142        2.2757360718
Li       -12.0874122179       -1.7261788102        1.3773045673
Li         0.5927692188        2.2172153252        4.4137701215
Li       -10.5362265481       -4.5715605968        3.4068565083
Li         0.3037592828        3.6400735558       -3.1809393222
Li        -5.4178585505        0.2587593891       -3.3250454310
Li        -4.2661569438        8.3225141127       -0.0985001341
Li         9.4479172056        8.3296935732        2.6060507710
Li        10.8173664528       -3.7543917386        8.0437286422
Li        -9.2374359428       -3.5088668516       -5.3818750175
Li       -12.1392967621       -2.8347907623       -2.2371652921
Li         1.7918906137       -8.3399816495        6.9129135583
Li         2.7435460253      -11.2562683628        4.5261498141
Li        -2.6646313585      -11.1233513231       -7.5625659060
Li       -11.6399462447        0.8338457847       -1.4806038365
Li         5.3056671164        3.8694825929        0.6322649368
Li        -0.4886961189       -0.2415563552        1.9450717405
Li         6.0226460129       -0.5276751144       -9.8235681470
Li        -3.0203487884        2.0379735625        3.2439025107
Li         0.0681530709       -9.8917124279        1.9863953110
Li         8.6128970981        5.5719964533        0.2157402273
Li         2.5511532439       -4.8364757742       -1.6616855538
Li         6.8865560680        4.1557230324       -2.7569535141
Li        -1.6335137602        1.2735184496       11.4252127984
Li       -11.4377837736        2.0176891010        2.1594546083
Li        -5.3642646987        1.4835010537        0.3436935937
Li         6.6671496791       -3.4024467385       -3.9529206798
Li         6.9312419339        0.6465784162        5.8939318315
Li         2.7591443139      -12.0587269111        0.7158303985
Li        -9.1625350480        6.2643968415       -3.8450137678
Li         5.4702530754       -8.8428699992        5.8137540076
Li        10.0312749625        6.0961204964       -3.2053411204
Li         4.5584883912       -9.6368615659       -5.2990988141
Li        -2.0393243737        4.6101722197        5.7953112036
Li        -6.2489879349        3.9840509786       -4.8852681876
Li        -0.8930415131       -9.0884240730       -1.6220200953
Li       -10.8297408224        1.3602943486       -8.1813610994
Li         3.2552996439       -4.3872867953       -5.2917994979
Li        -9.2837438769       -3.8379547514       -0.0614882928
Li        -8.7734389206       -1.2154500703       -2.7036387439
Li         4.4164641211       -3.9069121299       -8.8426151559
Li         3.4741382472        5.7097541266       -3.6963284921
Li         3.5606627952       -2.8217242273       10.3427818856
Li         8.0676292302       -8.7301852395       -3.9824257060
Li        -0.1147781711       -2.3046873234       11.3737663577
Li         3.8072085428       11.0476760427        4.4734561765
Li         6.1211388496        3.3033332082       -9.2137145566
Li         7.1003460990        9.2853177055        5.3835515451
Li         9.4506788918       -0.2707120897        8.3254688466
Li        -3.2099567411       -4.4275995354        0.1154576935
Li         6.2485122485       -6.3311645872       -6.4367009049
Li        -5.3108709060        1.0272646569       10.2315979872
Li         0.8585695988       -4.7547058962      -10.0570447276
Li         0.9479279933      -10.4226123259       -6.4872225102
Li        -9.1948840342        2.9126036043        5.1373719148
Li         3.1642243376        9.1625751046       -5.1253554484
Li         2.8326308724       -7.8464310945        3.3107687532
Li         0.2281606595        7.6742289108        4.7769358055
Li        -2.4950545314        9.9620009500        6.0356309230
Li         2.9709831723        1.3370549295       -8.6475597942
Li        -0.1228969913       -2.9085121324       -0.4866624349
Li         2.8978575399        4.8897473981        3.3741553844
Li        -4.0669357160       -5.1649684117        3.6963983565
Li        -8.3319254314       -3.6583455735        6.4481313490
Li         2.8074551531       -4.5202238392        2.0396994063
Li         8.5527765099       -8.9916826995       -0.1471469721
Li        10.9326136654       -5.0406322341        4.5180553234
Li        -4.1588827746       10.4093332533       -5.0176625374
Li         7.8517679981        3.1297086055        3.0864305301
Li         2.5148731843       -1.4386224474      -11.1476991313
Li        11.3425505669       -7.6723061019       -2.5039057414
Li        -0.5266116258        1.7831114312        7.9233724159
Li        -6.3628719809       -5.9885531050        0.6340330101
Li        -3.1884684233        4.1352893604        9.3425330164
Li        -5.1974031882       -5.7757326487        7.2191124913
Li         8.3629677327       -7.7157703568        3.4421535267
Li        -8.1258718743        0.8350367184       -5.7941313827
Li         9.9469118113       -1.5116209412       -4.5060665922
Li        -3.9679608614        6.8923500862       -3.7116696623
Li        -5.9215786291       -2.2163907369       -5.9271163027
Li        -2.8815968644       -4.7897095958       -9.2569882401
Li         0.2770252611       -2.4212026141       -4.1352676918
Li         5.5099602029       -5.4154160200        4.5117568396
Li        -1.4635286333        6.1592100901       -1.2047141987
Li        -0.6681302385        8.7587285775        1.1757403201
Li         1.8269582064        0.8243254303       -5.2061419093
Li         2.0491154255        2.1881480460        1.0189263302
Li        -4.4864297049        1.2441796764       -6.8576125577
Li         2.6674096817        7.3465463339        9.3560996441
Li        -3.1987277223       -8.0076202013        1.3114400320
Li        11.6023682575       -2.5501209222        1.5334724402
Li        10.0818553467        2.3204522876       -3.9063413645
Li         0.9885067169       -1.7812761709        7.8723592374
Li        -1.8582595954       13.1814667820       -3.6956172341
Li         6.1870297338        6.5909095363        2.9983609254
Li         1.4860839036        4.2347338677       -6.6438393265
Li        11.4112408527       -1.2696624392        5.1178801030
Li        -1.0240365308        7.1918910328        8.3178377568
Li        -3.4745414342       11.0322359449        2.3971672923
Li        -3.8343695670       -1.5806867747        2.4490695056
Li        -0.7757146122        1.3096527027       -7.8094488333
Li         2.6353873936        4.7770217650      -10.1289917759
Li        -3.3773735489       -2.9639627496       -3.2861004591
Li        -3.3688386618        7.3982585600        3.5617938339
Li        -3.3733378296        1.8513174955      -10.3924802719
Li         8.6447407185       -0.4252302089        2.6867020831
Li         2.7924700741       -1.2726046395        0.7251830428
Li         2.0779846017        0.7598850644       10.5176281201
Li         4.8681811025       -1.0463081265       -6.3362215154
Li         8.7767652752       -1.7967486945       -0.9102464979
Li        11.6814957838       -3.8905247874       -2.0327634374
Li         1.1638574293       10.1996638168        7.1954391434
Li         0.0355289862      -13.4426736691        3.1034411794
Li       -10.8118261745        4.4532214849       -0.8398113390
Li        -1.1581634518        4.8012356836       -9.3162607148
Li        -3.7600997370        3.3586760902       -2.4349095268
Li         0.7145707680        0.3323759254       -1.8010647829
Li        -6.4894788154       -9.5640835018        1.7512956641
Li         1.1278823435        7.6529685971       -8.0502664636
Li        -7.1392554820        1.7183763542       -9.3611285199
Li        -7.4593366140       -6.7008388163        4.1760993394
Li        -8.0147750218        3.5279110915        1.5798170333
Li         2.0389791551       -1.2917819740        4.3461155086
Li         5.6534189317      -10.1771146200        2.2004805716
Li        -6.4946898298        7.5224924681       -6.2558519481
Li        -2.6661183930       -1.2453277402        8.8312529837
Li        -9.4901515016        7.8802576351       -0.2330295666
Li        -4.1968641634        1.5449826892        6.7310730998
Li         8.5302700775        9.0254001446       -1.1490108238
Li        -8.7449969622       -0.1260430228        0.8725000188
Li        -0.8110302216       -7.1302452107        4.3478685690
Li         1.9271860029       -4.8057428666        5.6582129816
Li        -0.5750639704        5.1484753873        2.3967271772
Li         0.5223562675        4.3206268605       10.4274973553
Li         0.8381532569       -5.3578535315        9.2094401896
Li        -4.1189094590       -7.1747096642       -2.3034221188
Li         8.1689922293       -6.3113293069        6.9871904696
Li        -4.2491919974       -8.7306293530        4.8836174882
Li        -1.5712871431       -0.7344264205        5.3676181841
Li        -4.6933216423        6.9353968504        7.1084739348
Li         8.0927054951        0.9023703280       -6.9096624287
Li        -1.3420433914        2.6983399835        0.0068836051
Li        -9.6731858338        9.2752146904        3.3960663368
Li        -0.9555121781       -5.5888002567       -2.8507418876
Li        -6.6625400387        5.6044832860       -1.3242449453
Li        -0.8894954253       -8.0158646095       -8.8862994323
Li         5.5866221477       -3.4111322822       -0.3650928361
Li        -5.9766834965       -2.1585524845       -0.4948182672
Li         3.7030497256       -1.4762859178       -2.8440045365
Li         7.2230796877       -3.3098956911        9.2511148297
Li         8.0957454340        4.7159014583       -6.2292774042
Li         1.7491491250       -7.6528460858       -4.0758250346
Li        -6.5203626632        0.6494430393        3.8227223930
Li       -12.6571586326       -4.6792373787       -5.3985670151
Li        -5.6547719482        4.2958268471        4.5294604317
Li         1.8852941395      -11.2685019134       -2.9040656692
Li         0.1694205238       11.3162670882        3.6082760367
Li         4.2459174711        3.8138264201        9.4988006571
Li         1.6101989536        4.7643639114        6.8989303612
Li        -1.8029629238      -11.7887871456       -3.9951526824
Li         3.1765184546        1.2489420078        6.9597285463
Li        -0.6809519224       -3.6579168045        3.1222188564
Li         4.5300971031       -5.8720654857        8.1565413250
Li        -6.8772585327        9.1485804035       -2.6850384587
Li         2.7026913714       -8.4610472303       -0.4317867447
Li         7.9438431746        3.2755421822        8.4048478077
Li        -0.2748554966       -5.1976377175       -6.5240345889
Li         5.2373794463       -6.8269295888       -2.8372079016
Li        -2.3184472605        4.1920347836       -5.7836345467
Li         5.2610275359        7.2278124070       -0.7081794649
Li         6.6423476694        7.6832359344       -4.2112321959
Li        -7.6807733216        0.0953387746        7.3549095209
Li        -7.1855418659       -3.0509439253        2.9617440418
Li        -0.3702564333       10.4756254234       -5.9148211042
Li         1.3724789336       -1.9634313361       -7.6543591163
Li         4.4542517693        1.4280470636        3.4564429976
Li         7.8748482984       -2.9406502596       -7.4395516238
Li        -6.5571083622       -4.8112372940       -8.4779696235
Li        -8.2979174859        6.5955483461        5.7639442855
Li        -3.7679976440       -1.7688588605       12.3219576701
Li         0.3876793686        1.8622099062      -11.3032143492
Li       -11.6334284391       -0.6286864696       -5.1019558954
Li        -0.8529821168       12.3360725088       -0.0399716944
Li         6.1641490856       10.0978175447        1.6362832728
Li         8.2651215339       -4.2044084378        2.0776626316
Li        -4.4366539597       11.8128674961       -1.3499448082
Li         4.6679161272        6.2682196945       -7.2187738936
Li        -1.5747536061        9.6682960561       -2.4610728244
Li        -1.2313672413       -1.4724221970      -10.3794737665
Li         5.1195385672       10.5990405045       -2.1145206983
Li        -7.6589367549       -7.0654972627       -5.6022391863
Li         5.8446249705        0.3379801913        0.1828145591
Li        -2.7259694723       -0.4685793148       -0.9124735046
Li         2.7125725451       -7.2232861347       -7.7275314398
Li       -10.2715963674       -6.1707950214       -2.7644083819
Li        -8.7783470117        4.5185183732       -7.3636093632
Li        11.8472948832        7.4147075818       -0.1259008335
Li        -1.8899464101        0.7097565619       -4.3055243464
Li         4.6071336089       -2.2903236256        6.8148932305
Li         8.4152735066       -5.5806055842       -1.4963780948
Li         6.3651978962        6.8133300860        8.3389984058
Li         8.1173580333       -2.8348596832        5.6448189185
Li        -1.7490933544       -4.2318196373        6.6344345441
Li        -3.2387994516      -11.5500658360        2.4724980165
Li        -7.0340552229       10.5236229508        1.0368286990
Li        -6.0704278636       -2.7182556115        9.4312713433
Li        -4.1419067452        4.8052693760        1.1211042304
Li        -4.9354621654       -1.4892128700       -9.5171591348
Li         5.4529957830      -10.4651874046       -1.6666117794
Li        -8.6045299379       -1.7082694276       -8.5876231259
Li        -2.6814517742        7.6511496932       -7.2115619291
Li        11.9421661287       -0.0610438897       -1.4854160773
Li         8.8212819400        5.8402836824        5.5858734297
Li         1.9543611480        5.4161238592       -0.3135551796
Li        -0.9580432909      -10.6528252107        5.5066695604
Li        -4.7098694917       -8.0617797336       -8.1327860551
Li         4.7850243014       10.2935132196        8.1602481686
Li        12.0317706583        3.7443533959       -0.8587113480
Li        10.3639922661        2.3047710020        5.5690573708
Li       -10.8531940785        3.0067407385       -4.5422284699
Li        -1.8339265202       -8.2977449054       -5.2649807178
Li         8.9520760633        1.9580652374       -0.3295602119
Li        -4.9662036072        4.7324198928       -8.3775140520
Li        -0.8883772007      -12.5944025529       -0.4397462090
Li       -10.1823071816       -5.5449901531       -8.1793850776
