297

Li        -11.9981725643        1.1159586042        3.5176222045
Li          9.9943380876       -6.7636720132       -0.4677450973
Li          8.5095344433       -6.3832040138        5.7179860345
Li          2.5555810875        6.0443431974       -6.9556724887
Li          1.1264426375       -4.5877527878       12.2004257140
Li          4.8126560572       -6.7296674421        4.7954541509
Li          2.1323806422      -12.0625997278       -2.7425857379
Li         -2.3137285168       -3.0153410164       11.4632999822
Li         -0.5003183165       -0.2448642282        9.5465274142
Li          2.6122737992        5.6236421727        0.2811480144
Li         -4.3873595401       -3.3635890703       -2.8223592738
Li        -10.3268464835       -1.2008872257        6.1454823640
Li          4.3269086269        8.7685882610       -8.6923205572
Li         -7.9913533202        3.6564534426        1.1133414995
Li         -5.4445653477       -2.7957797770       -6.4039994853
Li         -2.3650635664        0.9727657307        2.5171828571
Li        -12.4214855824       -4.0404726693       -0.7402615412
Li         -1.8177356959       -2.3078402571       -5.4679142105
Li         -2.5555813825       -6.0443437591        6.9556734226
Li         -0.6267440608       -9.2559801832        7.7321964965
Li         -0.0000003180       -0.0000000529        0.0000004040
Li         -2.6122729770       -5.6236421448       -0.2811476789
Li         -8.5095354506        6.3832044742       -5.7179864596
Li          0.1606125357       -5.7356554489        2.3674531288
Li         -6.1525447105       -9.2773919938       -6.8733449936
Li         -5.4861185713        0.8016645398       -7.7914249363
Li          1.0544143712       -5.9646832832       -1.3561468326
Li         -0.5978035993        3.3577828787        8.1755004111
Li          9.3364830777       -8.7337228648        2.7782881496
Li         -8.2035550379       10.1721147953        0.6296605668
Li         -9.0291704353        0.2664922422        9.4641323764
Li         -1.6068222399       -6.7056699130       10.4893892134
Li          1.6999840494        5.7897054518        3.9616638412
Li        -10.4917463639        4.6878681477        3.7148359423
Li         -3.9652656394        4.9403206677        7.1635427588
Li          9.0207344176       -2.1871379690        2.2998340979
Li          6.1600243774       11.0959547128       -3.1781432994
Li          4.9120018159      -12.1257713339       -0.0679511089
Li         -6.1600241707      -11.0959546585        3.1781430368
Li          4.0106383566      -11.8948051869        3.6871537824
Li          6.7632081202       -5.0533475220       -4.4910084184
Li          3.5611802062        8.2127109329        9.5412828939
Li         10.1449057082       -2.8626133871        5.8939937115
Li          5.2811613014        3.1345617821       -0.9012396001
Li          2.6810908677      -10.1035808263       -6.0483260524
Li         -5.4898676304       10.2170428578        3.3654403038
Li          6.6011442676        0.7341376830       -6.8798542848
Li          4.8241541136       -4.9316782628       11.1163311287
Li         -6.4522875885        1.4266690882      -11.2915599956
Li          3.5229847799       -7.0821473999       -3.9878137301
Li         -2.8676127333        1.8503950421      -10.3681017229
Li         -0.8450725586       -2.8780978651       -1.9693672087
Li         -4.7576626193        1.9568578471        5.0636725347
Li         -8.3922717150        1.5463389419        4.3156793656
Li          4.4866237609       -0.1812405909        4.2855260203
Li         -1.4462020527        0.3705738229        6.0249110847
Li         -7.8277743757       -2.1851053031        3.5245076031
Li          0.3682728919        2.7584113834       11.7519517256
Li         -4.3624401128      -11.5565670453       -4.3106320836
Li          2.7931131235        1.7099081041        8.9844977150
Li         -4.8126566491        6.7296672797       -4.7954546691
Li         -6.3947940756        5.9377153376        9.7476588108
Li          8.3922709091       -1.5463386679       -4.3156789921
Li         -2.6938013955       -5.2564089823       -7.5206421234
Li        -10.8192755193        2.5456684670        6.9014196488
Li         -1.0544138526        5.9646827845        1.3561462484
Li         -8.8727182650       -6.8023106246       -5.7077620388
Li         -5.7204639213       -1.3869678995       10.5454009870
Li         -3.4699675396       -0.4300461143       -0.8064694554
Li         -9.0623459662       -3.2612824652       -7.2863397890
Li          6.2719251022       -7.1035915663       -1.2838995622
Li         -2.1323801782       12.0625989822        2.7425851154
Li         -0.3248126838       11.5994276427       -4.7877880106
Li         -2.6810901961       10.1035793517        6.0483248248
Li        -10.1449068292        2.8626139193       -5.8939941178
Li          0.4692643403       -0.8701859454       13.0456617013
Li          3.4699673584        0.4300465862        0.8064695909
Li          3.9652660390       -4.9403216321       -7.1635431721
Li         -0.2677234504       -6.3491262745      -10.2698470808
Li          5.4861183247       -0.8016641637        7.7914249002
Li         -5.9491735650       -4.4222525996        6.0413155201
Li         -4.8241544482        4.9316783304      -11.1163314012
Li         -2.9247072632        0.7494255912       12.1843994742
Li          2.3650627250       -0.9727662472       -2.5171826230
Li          1.5876294910       11.8574149066        1.6534682881
Li          3.0384617514       -4.3867846887      -10.8340529658
Li          7.9913524521       -3.6564530103       -1.1133419197
Li          6.2537739494        6.1728053599        1.1214656524
Li         -7.1943159206        2.9590698339        7.6570502691
Li         -3.1254521851        7.9182671065        9.2253845488
Li         -9.6667470594       -4.9349810047        5.2964889036
Li          1.6068222367        6.7056696233      -10.4893883990
Li        -11.5201210086       -4.2714388734       -4.4953662945
Li          0.8450725090        2.8780981555        1.9693673202
Li         -8.0800288371       -8.9548982403        0.6129794125
Li         -1.8821064796        2.9882644575       -0.6355750972
Li        -13.0786638989       -0.3229052297        0.1049746466
Li        -11.0051015479        5.2602891708       -2.9651766329
Li        -11.6297110253        3.2430818731        0.2917372160
Li         12.5834573132       -1.7437115526        3.1277453938
Li          6.3947945839       -5.9377155851       -9.7476592829
Li         -6.9803352716       -0.8650993231       -1.6223281819
Li          7.9567922206        3.8314444084        3.6682355812
Li          9.5162229186       -0.1193421264       -0.9347302514
Li          0.6267437724        9.2559799096       -7.7321961902
Li         11.5201217091        4.2714394771        4.4953664308
Li         -3.8651053950        1.3634580235        8.6399306131
Li         -3.3636772449      -11.2089154553        5.8491539308
Li          0.7115233234        8.8219251379       -0.3718203616
Li          3.1254529119       -7.9182680819       -9.2253854955
Li          6.1525460437        9.2773930052        6.8733451156
Li          4.3873598744        3.3635892405        2.8223602258
Li          5.2446867566        8.0697249601       -5.1495133259
Li          9.6667471675        4.9349811165       -5.2964885033
Li          0.3248126620      -11.5994277001        4.7877880401
Li          9.0734653664       -0.3665284068        8.6667772132
Li          2.9784941507       -9.0583624018       -0.7218693094
Li          2.8721500303       -3.6568428974        4.1117672732
Li         -1.1264426473        4.5877527504      -12.2004254317
Li          0.2043020232       -8.9462963940       -3.3717193990
Li         10.6802883710        6.3391392833       -1.8226111004
Li         -3.0874056267        9.6014351847       -6.6432830570
Li         -5.4417748369        2.6010945367       -1.4662130607
Li          1.1397758096       -6.4714731830        5.9406935379
Li          4.1577386742        1.7082376553       -4.2805967406
Li          2.4930005202       11.6254226606       -2.1183295903
Li          3.7608174928        1.0834714046       12.4839525690
Li          5.2828972762       11.3728997817        0.5685760243
Li         -3.5611797850       -8.2127108351       -9.5412838049
Li          1.8177357423        2.3078399266        5.4679143053
Li         -3.7861251869        6.0113214176       -1.2785503479
Li          1.2211486716      -11.9708782382        1.0294162599
Li         -6.4594612056       -2.1918680317       -9.9661384380
Li          8.2035548232      -10.1721152039       -0.6296607694
Li         -5.0603645219       -5.1210611869        9.6964079029
Li          7.8277740713        2.1851059595       -3.5245072363
Li         12.4214862141        4.0404729817        0.7402617337
Li         -0.3682728962       -2.7584117459      -11.7519518332
Li          5.8084562885       -7.3953680957        8.3153787904
Li        -11.4648100715       -2.6456732600        2.7223838398
Li         -2.8721506215        3.6568427804       -4.1117676499
Li         -7.9567915990       -3.8314434184       -3.6682352834
Li          5.0603641198        5.1210608218       -9.6964069653
Li          5.2866460435        6.3216983774        4.8511816147
Li          2.5706364940        8.7549238123        5.9906438695
Li          5.9491733046        4.4222523919       -6.0413148818
Li         -8.8586702467       -3.6003457676        0.0890118875
Li         -0.1606125934        5.7356551026       -2.3674532762
Li         -5.9328259369        0.5518163181        1.7393848500
Li        -10.6802874817       -6.3391387201        1.8226112703
Li          0.7945374392        3.3158019834       -5.1867663776
Li          6.9803349665        0.8651002954        1.6223282422
Li          8.7331610989       -8.1447972369       -3.8690209385
Li          9.8780928275        6.6655921936        1.9611256128
Li         10.8192745953       -2.5456686095       -6.9014191924
Li         -7.0827469882       -5.8614644633        2.6314214374
Li          6.7451184172       -9.7984040946        5.4462264636
Li         -1.2211483748       11.9708777690       -1.0294164790
Li         -0.1695229627       -9.8338770840       -8.6274473118
Li         -2.9784935328        9.0583617064        0.7218687547
Li          9.1911409426       -6.0506776717       -7.0766483877
Li          1.8821058128       -2.9882650181        0.6355748882
Li          5.4417739278       -2.6010939026        1.4662128224
Li         11.9981718680       -1.1159584127       -3.5176220749
Li         -3.2583103448       -2.3696943265        7.8891624992
Li          2.0766158480       -8.8272647645        3.0353778667
Li         -6.7451187015        9.7984041457       -5.4462263526
Li          8.8727195562        6.8023115147        5.7077624790
Li          6.4594612048        2.1918684656        9.9661386067
Li          1.4462015130       -0.3705746544       -6.0249107733
Li         10.5553381511        1.3081643238        2.4532092439
Li         -9.3364837868        8.7337231223       -2.7782882798
Li         -8.0569537118       -0.2545817588       -5.1446234438
Li         -0.1572349510        3.9645513182       -8.7008090020
Li          3.7861250468       -6.0113215743        1.2785498045
Li         -3.5229841656        7.0821462447        3.9878129633
Li         13.0786634023        0.3229051023       -0.1049745008
Li          1.8963764760       -1.2236820050        6.8565142344
Li         -3.6760733886       -4.6672305551      -11.0579652936
Li         -1.5876287958      -11.8574150759       -1.6534686296
Li         -8.7331608834        8.1447967959        3.8690207931
Li          0.9427001048       -0.6082998595        3.4084157214
Li         -3.0384614800        4.3867839527       10.8340526016
Li          1.5454659961       -3.9154049423       -4.5617446404
Li         -3.8570566339        4.3086734353       -7.6160962966
Li          3.8651049316       -1.3634589262       -8.6399304141
Li          6.2946904284       -2.3628924477      -11.2232045820
Li         -4.9120016893       12.1257705901        0.0679509044
Li        -12.5834581277        1.7437115162       -3.1277455409
Li         -1.5918000066       -8.4860630353        4.1108833360
Li         -6.6011449877       -0.7341379874        6.8798548307
Li          0.2677238516        6.3491257387       10.2698462929
Li          0.5978037353       -3.3577836578       -8.1755005902
Li         -5.7252023451        9.0900411102       -1.9333639561
Li        -11.6202261383       -0.6966166487       -5.9709126122
Li          0.1572347851       -3.9645515384        8.7008093457
Li          2.3137283297        3.0153406938      -11.4632995484
Li         -8.4083499808       -3.4546321450        8.6568089709
Li         11.6297096891       -3.2430815838       -0.2917373495
Li         -4.3897421862       -8.3730374807        1.4383489985
Li         -9.9943388271        6.7636720713        0.4677450335
Li         -6.2537730501       -6.1728043630       -1.1214649065
Li         -6.2719252115        7.1035911807        1.2838990237
Li          5.7204632890        1.3869676075      -10.5454003771
Li         -3.4683557769       -5.3365778237        3.4054178710
Li          3.8570561530       -4.3086733977        7.6160958476
Li          4.3897430018        8.3730377876       -1.4383485360
Li          8.8586705795        3.6003468788       -0.0890115870
Li          8.8514937909        8.5858138192       -4.3705352835
Li          0.5003180615        0.2448637349       -9.5465271850
Li         -1.7241411069       -2.6528455835        1.6928541927
Li         -2.1198925086        7.1502595657       -9.4990890136
Li         -1.8963767001        1.2236818196       -6.8565139024
Li         -2.0766158354        8.8272644250       -3.0353783858
Li         11.4648101530        2.6456736228       -2.7223834858
Li         -7.5420220141        3.9320282324       -8.5737924262
Li          7.1746585322        9.1868916760        3.1588188469
Li         -0.6647294675      -11.9004941480       -5.3947267454
Li         -5.9872754101        8.1412385471        6.6125314956
Li         -4.4866242694        0.1812407450       -4.2855259989
Li         -7.4055002438        5.6643791344       -2.1259941724
Li         -7.1746572394       -9.1868905702       -3.1588185985
Li         -3.4955185556       -8.6021729302       -2.2870065961
Li          2.9247070796       -0.7494261545      -12.1843992498
Li          3.2583098177        2.3696935917       -7.8891618472
Li          7.7185661798        7.1474222292       -7.7784844309
Li          8.0569530557        0.2545824964        5.1446232771
Li         -9.5162236101        0.1193430745        0.9347300834
Li          1.7241406809        2.6528454695       -1.6928537703
Li         -0.7115226182       -8.8219255053        0.3718198274
Li         -7.7185661176       -7.1474224948        7.7784849755
Li         -5.2446865909       -8.0697251480        5.1495140419
Li          4.7576620828       -1.9568582436       -5.0636722535
Li          8.0800299668        8.9548991581       -0.6129792712
Li         -4.3269087725       -8.7685887287        8.6923217872
Li          5.4445657461        2.7957801659        6.4039999007
Li         11.0051004863       -5.2602888549        2.9651765168
Li         -2.5706353008       -8.7549235297       -5.9906444937
Li          3.3636770756       11.2089156282       -5.8491537789
Li         -0.2043009009        8.9462958685        3.3717185567
Li          7.1943154768       -2.9590703224       -7.6570500179
Li         -8.8514933206       -8.5858136285        4.3705354172
Li          7.5420212475       -3.9320276013        8.5737920584
Li         -5.2828962247      -11.3728989638       -0.5685761680
Li          2.1198921793       -7.1502594169        9.4990886852
Li         -6.3589112232       -5.7825816580       -8.4840331308
Li          6.3589120361        5.7825823207        8.4840333666
Li          9.0291698998       -0.2664922452       -9.4641317337
Li         -5.2866447469       -6.3216975871       -4.8511811898
Li         -4.0106383035       11.8948051139       -3.6871538479
Li          1.5918001809        8.4860628625       -4.1108834255
Li          6.5184486930       -3.2790349054        5.0228125446
Li          8.4083494544        3.4546319122       -8.6568084200
Li         -3.7608174378       -1.0834709716      -12.4839522666
Li         -0.6997899718        6.8784991972        6.6062834969
Li          3.4955198292        8.6021734851        2.2870063714
Li         -4.3183514553        4.0274178398        1.9131433543
Li         -6.5184494987        3.2790352443       -5.0228130963
Li         -4.1577391801       -1.7082378437        4.2805975525
Li         -5.2811613157       -3.1345607792        0.9012404731
Li         -0.9427005053        0.6082996936       -3.4084150499
Li         -9.1911407724        6.0506770218        7.0766481095
Li          4.3624408103       11.5565676821        4.3106319614
Li          2.8676127472       -1.8503948903       10.3681019966
Li          9.0623463776        3.2612831240        7.2863399624
Li         -9.0207352198        2.1871387906       -2.2998345644
Li         -2.7931130951       -1.7099081734       -8.9844974868
Li        -10.5553383916       -1.3081635678       -2.4532094711
Li         -0.4692642449        0.8701858424      -13.0456614865
Li         -9.8780917564       -6.6655913042       -1.9611253620
Li         -6.7632082362        5.0533468665        4.4910078986
Li          0.1695232653        9.8338764783        8.6274463512
Li         11.6202255524        0.6966169784        5.9709119960
Li         -9.0734656472        0.3665290162       -8.6667774280
Li         -5.8084566412        7.3953684603       -8.3153791057
Li         10.3268460297        1.2008873515       -6.1454819065
Li          5.7252022021       -9.0900413702        1.9333636812
Li          2.6938021283        5.2564086855        7.5206416420
Li          0.6647296904       11.9004938304        5.3947261619
Li          4.3183515559       -4.0274179826       -1.9131434660
Li          0.6997910019       -6.8785000758       -6.6062843937
Li          3.4683558979        5.3365777400       -3.4054170451
Li          5.9872760012       -8.1412396296       -6.6125322896
Li          7.4054995562       -5.6643785406        2.1259935587
Li         -2.4930001584      -11.6254226440        2.1183295799
Li          7.0827475177        5.8614650911       -2.6314208134
Li         10.4917457839       -4.6878682376       -3.7148359544
Li         -6.2946904297        2.3628924661       11.2232048029
Li         -0.7945377216       -3.3158024195        5.1867668425
Li          5.9328251113       -0.5518154641       -1.7393847874
Li          5.4898680553      -10.2170437953       -3.3654409612
Li          6.4522874504       -1.4266687704       11.2915600082
Li          3.0874053445       -9.6014350806        6.6432828769
Li         -1.5454654504        3.9154039068        4.5617445637
Li          3.6760734449        4.6672308848       11.0579650238
Li         -1.1397763668        6.4714728774       -5.9406938195
Li         -1.6999828433       -5.7897054323       -3.9616641709
