302

Li         -2.8264144994       -8.5936593900       -3.1282525222
Li         -1.1884042040        5.3578635205       11.3105806578
Li         -6.5216783130        8.9186543634       -7.0493957264
Li          5.7731179017        5.3388681325       -5.3999229943
Li          6.5174293219        5.7612261662       -9.0189295025
Li          1.3116799761        5.5253718027       -2.4697594594
Li          9.7793241799       -2.0926804400        8.4707938619
Li         10.4856713023        7.7812869269       -0.4404718998
Li         11.1282844561        3.5078583538        5.9522574363
Li         -3.2517557764       -2.8550515381        4.4872755017
Li         -5.2308170376       -8.0217891948       -0.1974035114
Li         -8.7434834502       -1.5318672264       -0.1603053630
Li         -8.9963222248        0.1232890795        3.3132018580
Li         -8.2229671592       -8.4936517124       -2.5337563594
Li         -0.8586658795       12.2456221047        4.5379125387
Li        -11.8165440379        0.2947792460       -5.6334305623
Li          8.4546654000        0.9970097343        6.7841771528
Li         -5.3897533431      -11.1288158301       -2.2347381547
Li          2.7761629735        6.4566131545       -9.7963949231
Li          0.2225585489        5.9971668920        4.0211458596
Li         -2.1588513212        0.0433606816       -5.8109197366
Li         -7.6537494510        5.7027466658        0.8051692819
Li          1.0477150679      -11.7419614237        5.6988624532
Li         -0.3562180218        8.7702587600        9.7177577614
Li          8.7040902359        1.5222504254        0.1967524981
Li          6.2819814902       -2.8606588674        9.9180648149
Li          0.4789194225       -3.4521957869        5.1571864046
Li          1.5971854907       11.8593709198        1.5921612659
Li         -4.8165980988       12.2482462426       -6.2925704570
Li          0.8231937628      -12.2813002377       -4.5017041960
Li         -7.1324705891        5.3714106855        8.1644510076
Li         -8.1895881335        5.5101696814       -7.7600191348
Li          8.9158873786       -0.6476538780        3.3748628583
Li        -10.6848350475        5.4514282218       -1.5150719678
Li         -0.2627023688       -6.0020804607       -3.9821300362
Li         -5.3895869820       -2.8067556790       -1.3412060458
Li          3.4773145747      -12.3152473219        2.7437546724
Li          2.2659780146       -9.2225028377        1.1482957572
Li          1.9741156402       -1.9165395825      -12.7980282858
Li          4.2433215402      -10.6749497636       -3.7034200083
Li         -8.9500511063        0.6348652392       -3.3432569517
Li         10.6443494156       -5.4611867439        1.5507451406
Li         -4.0774402098      -11.2941242655        1.4136566530
Li         -2.5095445981       -2.4305520668        0.9113401051
Li         -4.6706273184       -8.5735395890        7.1457788039
Li          7.3478465315       -4.1084274641        2.7290581577
Li          0.7358767410       -0.8255834455       13.0801029100
Li          9.5087570326       -6.9961391201       -5.5968458896
Li         -0.5112047583      -12.1393411390       -8.0740729868
Li         -0.7773392562        0.8156026179      -13.0436711033
Li         -5.3761404328        0.1536903912       11.9818675918
Li        -10.8798784523       -5.6706186185       -2.7295027360
Li          4.3749616021       -4.3703553505        0.4119646994
Li         -2.9374202272        9.6484611949       -8.3590361482
Li        -12.2251814859        1.9497584900       -2.1728356858
Li          4.6195315630       -0.5511349567       -8.3318603233
Li         -3.7705251503        7.1255231529        9.0151214563
Li         -5.6220076121       10.6951667369        0.0937689335
Li          1.1594387780       -3.0183348702        1.5701739459
Li         -6.0131659762       -6.8180087292       -8.6605887309
Li         -1.6383144729      -11.8701919379       -1.5546207121
Li          1.3645849841        0.7537419078       -7.0204130305
Li          5.1765274234        3.4011153012       10.3754839729
Li         -2.3223546509       -3.0461948224       -7.9791494879
Li          7.8635973629       -1.8640485566       -9.5759489609
Li          4.6211178909       -6.3030326312        9.2189375454
Li         -4.6620684268        6.2922327758       -9.1847259629
Li        -10.3231893650        3.7924514396       -5.0107447395
Li         -9.8567962705       -0.2746285902        7.0197355622
Li         11.5615395199        2.3488679659       -4.2134480961
Li         -5.0274139082       -4.8837547498        1.8151519091
Li         -2.8166739642       -6.4660854158        9.8316050314
Li          5.9684929030        6.8123375674        8.6959362195
Li         -3.9171020525        0.9137588746        4.7625858639
Li        -10.8818156385        7.0158518708        2.0020995083
Li         -3.2667903044       -9.5184177102       -8.3962170650
Li          5.3504383813        2.7971383005        1.3766122076
Li          7.6119407549       -5.7126471244       -0.7685718139
Li         11.3377574810        4.0327057972       -0.7231814853
Li          5.3460754535       11.1172118079        2.2724756230
Li         -2.0899777850       -6.0264749509        6.1771218476
Li         11.3358281565        1.3376284117        9.0842978084
Li          2.4255172148        6.1338044289       10.1274405508
Li        -11.6900303866       -1.8842222313       -2.4577716334
Li          0.8529125183        9.1696414472       -7.7894779408
Li         -0.2989119115      -11.8993087925        2.0919136652
Li          2.6333691907        5.4947775892        1.1326053503
Li         -7.3873888336        4.1006059885       -2.6932634910
Li         -2.7388449531        3.5792042346      -11.1917275497
Li         -5.8137390472       -5.3484884044        5.4352850885
Li         -3.9872162479       -3.2699138173        8.0888894643
Li         -2.6739237445       -5.5054282363       -1.0975256207
Li         10.8398285125       -7.0262772786       -1.9650307851
Li          0.5577241355       -2.6556772155       -5.5677651789
Li         10.2833191092       -3.8038120001        5.0457290866
Li          0.6684383764        0.3723913482       -3.4823702321
Li        -11.3779329680       -4.0419928957        0.7584896152
Li          0.9459970986       -9.1977803001       -2.4510602130
Li          4.9765737205        0.2815260143        8.1730927175
Li         -6.0549536732        0.9621694263       -1.0658868780
Li          7.2898265649        1.9729678667       -9.3911604576
Li          7.8567835499        0.6215814236       10.4786277907
Li         10.3387023029       -3.5505095917       -7.1463004605
Li        -10.3792287778        3.5407621915        7.1817637483
Li          3.0905197899        6.4309344980        6.3718649809
Li         -2.9817631828       -3.3745609969       -4.2740692786
Li          3.9466509901        3.2603494599       -8.0534352286
Li         -9.3071656047        2.2730997994        0.1087781246
Li         12.4947917610       -3.5992274928       -1.2718097912
Li         -0.2146643565       -3.8739776990        8.7661165360
Li         -1.1987879293        3.0065284647       -1.5335527953
Li          9.2678218099       -2.2835561839       -0.0745055781
Li          8.1824785576        8.4839054024        2.5694239393
Li          0.1748601516        3.8638693602       -8.7318488041
Li          5.7065942164        1.1590049274       -2.0747747369
Li          8.2430643280        3.1635009063        3.6532646910
Li         -1.3519513495       -5.5342235810        2.5044126509
Li        -10.8858747583       -6.1378483165        3.9545149427
Li         -4.0583342860        2.7235964428       -3.8286012944
Li          6.2798636256       -5.6826403988       -4.4028598278
Li         -7.9041920713        1.8541445828        9.6113062144
Li          0.2596022847       11.8905488592       -2.0550237346
Li         -1.0290481675        6.9693172150      -10.3771324933
Li          8.6213617004       -7.2453536566        4.3484638216
Li         -6.9359088481        2.4111843525       -6.1308704011
Li        -11.1456909002       -3.5052209487       -5.9110201910
Li         -9.8035818886        2.0700269455       -8.4192449870
Li         -0.3865993848       -9.0607014808       -6.0212340644
Li         -5.7853691179       -9.0688470921       -5.5035528888
Li          0.9896504052       -6.9795829990       10.4093387898
Li         -7.8882736598       -0.6315920029      -10.4176589598
Li         11.8021087425       -0.3089689101        5.6734409587
Li          1.0563708547       -6.1027957746       -0.4278783426
Li         -2.7137816185      -11.1870074851        5.0463092755
Li          8.4947077496        6.3276530038        5.7858260130
Li          4.3064032573       -0.1022271064       11.8068036644
Li          6.3031319132       -2.5811571167       -2.3243605953
Li          6.8960597609       -2.4288531946        6.1683232682
Li          2.6982592546       -3.5889694705       11.2273007968
Li          5.3354129675       -0.1634211479      -11.9464867673
Li         -9.1829029767       -4.0918535291        6.7408885581
Li          9.1421735448        4.0820500691       -6.7054811347
Li          0.4414961704       -5.7130024123       -7.6478509896
Li          2.9026063035       11.6423787482        5.2111562477
Li         -2.4668287513       -6.1425347697      -10.0930811985
Li          3.8568759788        8.0421981862       -3.4002708155
Li         -8.9122215057        8.8239616140       -0.7771944603
Li         -9.5472899002        6.9861395864        5.6326564411
Li         -0.5190111575        3.4434100332       -5.1222298398
Li         -8.5351795266       -6.3356013655       -5.7505965749
Li         -7.9704249493       -5.2987780745       -0.4443457251
Li         -1.3032724685        2.2923722246        9.2165638830
Li         -1.5014413212       -8.7263578158        0.4884793407
Li          1.4429016229       -0.4366144944        9.4640492308
Li         -5.2181764558       -3.4100241946      -10.3386213176
Li          2.7706565022        0.3250429366        2.2462813781
Li         -3.5219083195       12.3312253391       -2.7037710907
Li          3.8228000009       -4.0305838292       -6.8760399370
Li          2.8945736310       -9.6436327441        8.3726344474
Li         -2.0145473694        1.9072984638       12.8322913181
Li         12.1876095738       -1.9612584284        2.2060111624
Li          6.5250760705        1.5712507476       -5.7401060934
Li          3.3795197548       -3.1731434811        7.5613397405
Li          4.6616076698        3.6533015277      -11.6676786639
Li         -0.0206271085       -0.0049660191        0.0181247492
Li          0.1006028407        2.9793757546        2.0083028592
Li          8.8681563162       -8.8333723484        0.8150993015
Li         12.1830043474       -1.4496574893       -4.4727940039
Li         -0.5975252711        2.6452572017        5.6026009650
Li        -12.0517037123       -0.2254628721        1.0372861913
Li         -5.0195915261       -0.2922298908       -8.1305054920
Li          2.3521457658       -6.0657438849        3.1399578849
Li         -1.4049723013       -0.7634617986        7.0558459882
Li          5.2538905417       -5.8233403727        5.4766973870
Li          0.8840674031        4.2579551713      -12.3469846741
Li          7.0924402332       -5.3816418281       -8.1289171862
Li         -0.1647529131       -8.6488289441        4.1055278093
Li          6.4633565850       -8.9183333926        7.0688311068
Li          7.7455737473       10.5009103183       -0.6846829429
Li          4.0367438812       11.2845096707       -1.3778527685
Li          5.8074605838        3.7374479482        6.6187685020
Li          8.9558103871       -0.1329913709       -3.2777476887
Li          7.6037203749       -8.9203780338       -2.8538058106
Li         -3.1639054356        1.2760328644        1.1821051822
Li          5.5806005044      -10.7044103789       -0.0561088680
Li         -4.4158326927        4.3614947774       -0.3767504245
Li         -8.7183737214       -4.0770505961       -8.8682872605
Li         -3.4189223527        3.1652292142       -7.5254072845
Li         -3.8958549345       -8.0511665420        3.4356744876
Li          8.2903610562        3.6363971117       -3.0023972772
Li         -2.8127978849       -0.3349345158       -2.2127159924
Li         -6.3232466941        2.8495598930       -9.8813606725
Li         11.6510499420        1.8748419953        2.4919915805
Li          0.3466534800        9.0713720291        6.0712430542
Li          8.6891423447        4.0825847253        8.9218938655
Li          5.1890598790        8.0115919889        0.2339733085
Li         -6.8835731422       10.5773899640       -3.5542524714
Li          2.9657982132       -7.4164833519       -5.2444509954
Li          3.1235359307       -1.2857078157       -1.1467858482
Li          7.5517898164        7.3729948847       -2.7000212571
Li          5.7429994100        9.0589342261        5.5394815920
Li         -6.3186691188        5.6727075018        4.4381977622
Li         -7.5922784541       -7.3823284106        2.7356325886
Li          5.5922742543        0.6585902314        4.4993099893
Li         -7.3305806120       -1.9827528700        9.4266102072
Li          2.4691851259        2.4208134052       -0.8760284814
Li         -4.3487857179        0.0919163004      -11.7680622980
Li         -2.8230021317       -1.5398401987       14.2569915252
Li          4.5648579519       -3.6753172319      -10.5365254220
Li         -1.0966963450        6.0931084997        0.4630258731
Li          6.1991111821       -8.7739026563       -6.4685972021
Li        -12.5342913152        3.5882069506        1.3059355574
Li          1.5928052053        2.6728030050       11.6847189438
Li          3.0535377125       -4.3412553252       -3.1905096518
Li         -2.8733314756       10.4685471496        7.3213280346
Li          4.9869745033        4.8741196420       -1.7797596120
Li         -5.6616798712        7.4665024485       -1.9550635636
Li         -8.2787447687       -3.1677034275       -3.6210339449
Li          8.1465445226       -5.5250943363        7.7946935586
Li         10.8452240161        6.1281020976       -3.9192448215
Li         -3.0935373537        4.3308791687        3.2250538011
Li         -5.6132917840       -5.9486413166       -3.4273582163
Li          2.1579558030      -12.3376536333       -0.8799650199
Li         -7.7876664573      -10.5107463544        0.7217869529
Li          6.4144416125       10.5313883214       -4.3164730440
Li          6.0157654682       -0.9715561087        1.1013126175
Li         -8.3308603352       -3.6461767824        3.0378434755
Li        -11.6020807911       -2.3586124344        4.2488627786
Li          0.3179357560       -8.7912597927       -9.7060496652
Li         -6.4531756890      -10.5402679170        4.3523590703
Li         -0.9833257004        9.1829618571        2.4928043979
Li          2.0710877760        1.1406371695      -10.6093320321
Li          3.5670082772       -9.1701155909        4.7387137118
Li          1.2632736769       -2.3013669559       -9.1822162312
Li         -1.7214770916        6.5389982068       -6.7528478041
Li         -4.6600323488        0.5412078435        8.3672903629
Li         -7.6443510757        8.9104049717        2.8895892802
Li         -8.5146070245       -1.0090569267       -6.7640895059
Li         -2.3905811523        6.0511354358       -3.1016479953
Li         -2.1118110475       -1.1503974272       10.6445158265
Li        -12.2236509505        1.4398977206        4.5080670149
Li         -0.1406940282       -2.9869685448       -1.9713748664
Li         -6.5657905297       -1.5810343724        5.7756270586
Li         -8.6636683925        7.2350727708       -4.3125564119
Li          3.2112059364        2.8456208458       -4.4519699211
Li          9.8160587380        0.2648752748       -6.9843223475
Li          4.3304436134       -7.5411012794       -1.6423062710
Li         -2.9988696612        7.4048411771        5.2782396960
Li         -4.2823307436       10.6645019484        3.7401888066
Li         -6.5580772391       -5.7708329430        9.0543045615
Li         -5.8499983693       -3.7398729697       -6.5802031925
Li          2.1192305934       -0.0529890984        5.8469676259
Li          7.9307360385        5.2902650575        0.4787556540
Li          5.5743541850        5.9373981936        3.4628986918
Li         -3.1379226240       -6.4389061760       -6.3400935856
Li         -9.5823815550        3.8904803732        3.5591075972
Li          2.7801643399        8.5793012134        3.1668671500
Li         10.8414720262        5.6638357338        2.7630184155
Li         -5.7468449702       -1.1687112573        2.1103610426
Li         -3.8634722490        4.0193703350        6.9109654880
Li          2.6765493268       11.1793949296       -5.0110220730
Li         12.0116603437        0.2154339557       -1.0020300340
Li          2.8458207945      -10.4974094538       -7.2990298376
Li         -4.6052804326        3.6653579828       10.5717012551
Li         -5.6371237670       -0.6688134354       -4.4677328438
Li         -0.8921622111       -9.1787743396        7.8241020437
Li         -2.9549082287      -11.6762540779       -5.1798727431
Li          3.8766580085       -0.9237848859       -4.7273209798
Li          2.0487983108        6.0181180509       -6.1419892686
Li          3.2125721639        9.4955167983        8.4139519325
Li         -0.4802140745        5.7052993679        7.6763882255
Li          1.1486842166       -5.3662819361      -11.2782423591
Li          1.4603074780        8.7165866366       -0.4546928546
Li          2.9419977354        3.3645269203        4.3094265142
Li          5.6142794136       -7.4743539946        1.9941584516
Li         -1.4843650066        0.4266280378       -9.4275485630
Li         -1.0828524420       11.7562751734       -5.6734103506
Li        -10.5257028403       -7.7893077613        0.4748110686
Li          1.6831703905       -6.5490521193        6.7812162453
Li         -4.7023203375       -3.6631178471       11.7030514750
Li          2.2835220626        3.0350653943        8.0148455223
Li          8.3296599202        7.8295687908       -6.3149949604
Li         -1.6333892169       -2.6825637759      -11.6491473098
Li         -2.3050719866        9.2176772386       -1.1058202998
Li         -6.2358153339        8.7633213963        6.5036713425
Li         -5.3003716394        5.8101258366       -5.4453062033
Li         -2.1964874374       12.3277931808        0.9218328362
Li          3.7313907211       -7.1352854816       -8.9805432232
Li         -7.1508021425        2.2252177270        5.9885416873
Li          9.5420372555       -3.9006167635       -3.5235492003
Li          4.0184197506       -2.7327984871        3.8640201301
Li          4.6304005831        8.5644031653       -7.1101689707
Li         -8.3701886864       -7.8393125645        6.3504534716
Li          7.1102284231       -2.2350987044       -5.9531942324
Li         -6.3435386225        2.5713480049        2.3597449094
Li          0.1305418972        8.6436211460       -4.0712699941
Li          2.7821095926        1.5300611061      -14.2219523704
Li         -0.7086796412       -0.3820889166        3.5178469925
Li         -4.3715900070        7.5314084475        1.6761018478
Li          6.8236532184      -10.5681262684        3.5886929052
Li         -3.5996761473        9.1395393125       -4.6917143562
Li         -0.9243648013       -4.2679688765       12.3811924309
