340

Li         -4.1988147688       -6.6770274184       10.9957218723
Li         -4.9982168518       -1.2415773994        6.3599729110
Li         -5.8231277917        7.3959031071        3.3661881030
Li         -1.7707983457       -7.1997916193      -10.4069113725
Li         -4.3792569023       -2.8779230242        3.2317956589
Li         -8.6737373154       -6.1740545123       -0.3074901371
Li         -5.2693503237       -6.5587099418       -9.1488105226
Li        -13.1255848739       -1.5545864036        3.5322598665
Li         -5.8405170824       -4.8881892405       -2.0852687023
Li         -3.4512666993        4.9476248237        2.2600662268
Li        -12.6111625791        1.2055901759        6.1619816804
Li         -9.8286766395        3.3779180352        0.6134632104
Li          1.6318333550       -2.3918942255        5.1108933633
Li         -6.0009479189        8.3768428548        7.0678889432
Li         -5.2273342922        0.2313974265       -7.5930006413
Li          0.8673108285      -11.6908566378       -2.1282696867
Li         -9.0283981712       -4.9637272824       -3.9544545588
Li         -7.6263863382        1.2032795642        7.1820286916
Li        -11.4478625076       -7.4492637056        1.6063232150
Li         -1.0737533777        3.3335310489        4.6959701922
Li         -7.0965108963        4.8202613287        6.0634971182
Li         -7.9221180467        2.2522004912       10.8223563148
Li          4.3347805312        0.2966306723        4.7897532182
Li        -13.7034731193       -3.0527690780       -2.8694387638
Li          1.7764261700       -2.8641578508        1.5382208170
Li        -10.1894991150       -0.3227440348        1.6551016741
Li         -3.4885438913        5.8436140001        5.9932859451
Li         -1.6381071338        5.4799734397       -1.2204499389
Li         12.1462365739        3.9749261357        2.4227421656
Li          2.0352064831       -6.6866720870      -10.4893939912
Li          1.3606699894       -1.6301702247       12.4449709589
Li         -1.3410645314       -4.6723155260       12.5596258908
Li        -11.1137410766       -3.3696041036       10.5449822731
Li          1.0378209943       -0.4156234507       -4.0653250873
Li         -2.6376954197       11.5755470507       -5.5238281738
Li        -12.2088104759       -4.9498186994       -5.8405442232
Li        -10.5091121242       -8.2207224068       -5.1251583473
Li         12.0877904982       -4.0484659182       -3.2016303937
Li          9.6424914660       -8.3810497566        0.7285635983
Li         -9.9552796914       -4.0048620959        2.6878668476
Li          0.7475134680       -8.8867290973        2.4436459970
Li          0.1811481875       -5.7882846427        0.2445585913
Li         13.1367708612       -3.2790127883        3.3734185903
Li          5.8141948320        3.4684176284        6.1620614662
Li          8.7893697980        9.1817846901        4.9361507966
Li          7.0134247472        2.0652731367       -7.7656097530
Li        -10.4595703459       -2.5630633231       -8.2821702803
Li         -9.0827115612       -7.2442243663        4.5297223629
Li         -7.1878317719        0.8433400026       -0.1985888647
Li          6.2734860625       -7.9789780830       -1.0296823616
Li         -4.5474529749        2.2851716211        5.2160306619
Li         -8.4368629313        1.0052474892       -5.5703849142
Li          6.4277754309      -10.5460006243       -5.5829895062
Li          3.6114962179       -3.9504567155      -12.7484856375
Li          3.6560291148        3.8806068845       -8.1378528099
Li          0.2792154441        6.5344686332        5.8246890711
Li          9.6791834374       -1.4916481117       -1.8903620342
Li         -0.8106874140      -11.9692990734        1.2999894941
Li         -7.1701927546       -2.8318151220        0.8955476534
Li         -3.2714077104       -4.9053523882        0.3986295568
Li          6.4385671548       -1.7179721620       -7.3049365858
Li          0.6610401302        2.5890076281       -6.2197328542
Li          0.8222633655        1.6125407436      -13.5583281123
Li          1.2634911443       -1.3931666410      -11.3720314378
Li          6.5689788114       -2.2402467997      -11.0237518181
Li         -7.2537117525       -4.0414614438        5.2589541873
Li          5.8429686802       -6.0151476691      -10.4105821222
Li          6.6606436005        5.1525473301      -10.0018946829
Li         12.2912702553        1.2704149379       -7.2038162920
Li         -0.1627664385       -4.5492974716      -12.8131975974
Li         -1.9068595416       -1.0660306741      -13.2440069664
Li         -3.5713802306       -3.8669963228      -11.3525608863
Li          0.7359468191        2.1093321333       -9.9022819563
Li         11.4643740104        6.9595381044       -4.6796219008
Li          1.1492533536       -0.8791127045       -7.6868774665
Li          1.8578797087       -6.0796565298       -6.7697616602
Li         -3.7208832829       -8.9076314022       -4.0887706976
Li         -6.1854182972       -6.1146406949        2.4005097180
Li          0.9215582192        0.0301848162       -0.5081077927
Li          3.2255034993        6.9192751817      -10.3034917884
Li         -7.8061311229        3.5619029669       -2.7592703966
Li        -11.6359486085        0.9481190359       -7.3063041061
Li          2.4281895765       -8.5535213180       -0.9669189193
Li          7.1340050847        1.5760487076      -11.4497537359
Li         -6.3355815775        6.6912901978       -8.3517521276
Li         -5.0688652271        6.1787138296       -3.1985760161
Li        -11.0721652806        3.5927178161       -4.6117497002
Li         -5.2955817649        0.9025071124       -3.8005773044
Li         -7.2483649820       -2.5354750403       -6.2668174754
Li         -2.2995248555       -5.8591148440       -3.0121203459
Li          6.2676483563       -1.2056478127       -3.5692178646
Li         12.2425096900       -5.5451096379        0.3511416650
Li          5.1131162307        7.5444350625       -3.2059768384
Li         -9.7405891428        8.7058029619        0.9091418567
Li         -3.9567140778       -2.5988728826       -4.2340066178
Li          4.0758003061       -7.9681865911       -4.2859543014
Li          6.5206000046        5.5833076611       -6.2080153394
Li          7.0062737084       12.5129052452        4.3808737222
Li         -4.4947153701       11.0570950222       -2.1774611229
Li         -4.1432827351        0.8380488142        1.7892053066
Li         -4.3846549164       -1.6222311646       -0.8313077736
Li          8.4758415630        5.7034154844       -2.8741300322
Li        -10.1491522825       -9.5325556985       -1.4358621066
Li          5.5726958117       -4.8622449083       -3.0571412849
Li         10.5374785276        5.7906684650        5.4574080985
Li          8.1213849250        8.8489944019       -5.0313012224
Li          3.7561466804        3.4044051064      -11.8643376058
Li         10.2295818028        2.2981365093       -2.3832386194
Li         -5.0789453322        4.3205759607       12.2812105550
Li        -12.3059346873        4.9218628476        5.1201772360
Li         -1.3789989873       -8.8582272673       -0.8201048296
Li          4.7544412419      -11.2081694470       -2.2529962523
Li          3.2195793146       12.0918953934        4.4255615678
Li         -2.1617453179        8.5209882231       -3.3998515958
Li         -0.3484618453       -4.0196345738       -9.1738222979
Li         -1.9293611209       -0.1746863121        4.3899089759
Li         -5.1777850788       -0.2915113749      -11.3460806125
Li         -6.6543880723      -11.3443744447       -1.4558050736
Li         -2.0061126525       -0.5623938018       -9.5497892298
Li          5.7503268834        2.9179519148        2.4003405586
Li          3.9974941532        6.2408358897        1.8720337582
Li         10.5066498477        0.7888556239        1.1168069978
Li         10.0124170423        3.3107533349       -9.5788108062
Li        -10.4035045682        6.1666380226       -1.8554401079
Li        -10.4624730776       -2.9155277501       -1.0158773669
Li         -3.4532537293       -9.7087827468       -7.8130979273
Li          4.1414903820        0.3415142679       -9.6011206722
Li         -4.9378827221       -8.1318210869       -0.5408746819
Li         -0.5713102162       -7.4035003706        5.7314582477
Li         10.6768075786       -0.7368402597        4.6129595183
Li         11.6767961849       -2.5036152969       -6.7077836626
Li          1.1912750747        0.5949247188        3.0021529874
Li         -0.2326745074        8.8229226910       -0.0883199759
Li          1.2333349914       12.0735484001        1.1194673711
Li         -5.8367606817        3.7515263868       -6.1343777377
Li         -6.7414213045       -6.9403467328        7.7275189740
Li          1.4997558874       -2.0765294174        8.7695036793
Li          3.3602873475       -2.9176202862       -5.4242722935
Li         -2.6251759225        3.5383209959       -4.3391899524
Li          2.5791611102      -11.0988540802       -5.4817148586
Li         -3.9134948123       -5.7360410180        5.5993488529
Li          2.8207947252       -8.4303717948        9.4060146002
Li         10.3962704999        7.3948667755        1.9217431421
Li          0.2381913078        7.3041219967        9.5341197001
Li         -4.5555675791        3.3313475241       -0.8980043256
Li          1.3226277967      -11.9881736290        4.5049465272
Li          8.0579976065       -8.0154698227       -8.0039134594
Li          0.2080016764        5.5764084332       -8.3743795667
Li          5.4912214348        9.3754901379        3.1295214214
Li          9.0023034203        2.6655072768        4.1826728777
Li         -4.6683503624       -3.9362992190        8.7121181771
Li         12.8335025895        5.0198200262       -7.6696220941
Li         10.5775786533       -6.1053484553        3.7903782649
Li          0.8508715972        1.3886199159       10.1332568755
Li        -10.2047792445        3.7061108577        8.0217998358
Li        -10.6675323753        0.1153619167        9.2009002109
Li          7.9482627733       -7.4007707258       -4.3395183324
Li          8.8392281620        4.2254050556        0.6628849825
Li          4.6803961660       10.6143621507       -5.3278761037
Li         -8.0429191112       -2.3156644602        8.4251181533
Li         -1.6266273166       -2.8322011547        6.6186533390
Li          7.5196629530        0.0198964069        6.5923216357
Li          5.4898838586        4.4166060721       -1.0988365446
Li          5.1194840789      -11.4571211070        4.4226883860
Li         -5.3147174684       -0.2915517921        9.9148685859
Li         -5.6243370082       -9.0106984608        4.7284058829
Li         13.9360044972       -1.0036246130        6.3563723329
Li          4.2209005638        0.7569554015        8.4530250644
Li         -7.0585107531       -0.2662554511        3.5523931840
Li          2.0973542290        6.1917169865       -1.3850167073
Li         -9.7165594473        7.3039175563        6.8780546660
Li          2.0268244514       -5.1078674836       10.9679836899
Li          1.7395212574        9.7132792480        6.9932344907
Li         -1.3184715300        5.0228094104       12.1448299994
Li         -9.9204631399       -1.3930823089        5.4197819234
Li          4.5715934253       -8.4444987921        2.3438096791
Li          4.2407430480       -0.1704132904        1.1011344043
Li         -2.5578343935        1.6854719089       11.3981610372
Li          4.0217945289        6.8675148328        5.5739146426
Li         -4.8577972238       -3.0727152795       12.3852621952
Li          1.7208074657        8.9230719360        3.2203533653
Li         -2.6210631233       11.3883560258        1.1613868636
Li          5.7532976111        3.9428458857        9.8716624303
Li        -12.4424390131        5.9215167924        1.3949996517
Li         -2.7434711028       -7.7793737142        2.5587334998
Li          2.1846555257       -5.4143823999        7.2730243679
Li         -1.1693681443        4.1075375007        8.4733064951
Li          7.9094091420       -8.8597791464        4.1382927952
Li         -5.4712846122        0.6778844636       13.4673160889
Li          4.0085063119        1.2144433026       12.1071220489
Li        -13.3932756520       -0.4366663341       -0.2163124305
Li         -4.8537369918        3.3121100996        8.7462327739
Li         -4.5193129131       10.7603744424        4.4647447951
Li         -2.1739348810        0.7357257372       -2.0895815978
Li         -3.0785441395        5.9637095433      -10.3196655639
Li         -7.0091154392       -3.2034788991       -9.8250909754
Li          3.9776822411       -5.4316469657        0.2406684959
Li         -5.1767132986      -11.9994103739       -5.0681343818
Li         -2.0923867554        0.0528140445       -5.8000385989
Li          0.3728471774       -9.2601153778       -7.9874359956
Li         10.0167905245        8.8617507497       -1.6514681532
Li         13.0111632964       -1.7821631771       -0.1681837431
Li          9.5047301427        6.8358599171       -8.0212865267
Li          6.6419950905       10.7457894391       -1.9854033126
Li          3.2062584773       -2.4110208097       -1.7796082482
Li         -2.5862315315        2.9686252391       -8.1101588943
Li          4.0173571254        0.8261938047       -5.9248135004
Li          3.4870264182       -3.4487281071       -9.0900287274
Li         -0.6366197821       11.5031633799        4.4585770090
Li         -3.0927841578        6.4308603311       -6.5341418823
Li        -11.9960534566       -6.3086665458       -2.1172764740
Li         -4.4232982866      -11.0202809192        1.6394708998
Li          4.2342356268       -8.6848165969       -8.0648757197
Li          3.5605310096        4.3034795115       -4.3811262641
Li         -9.0784292541        3.8768812896       -7.9018501269
Li         -7.2910648970       -8.2105116848       -3.3105826088
Li          8.9393484563       -5.2334777309       -1.3675126040
Li         -5.4845225926       -5.8567747725       -5.5733799537
Li        -13.5197410965        0.6331732184       -3.9704611262
Li         -1.0702979239       -4.5560920384        3.5189104543
Li         11.2778101071       -7.7686790889       -2.6657513868
Li          9.4756153639       -0.4920567538       -9.1644977642
Li          1.6518251577        9.2094469002       -3.4681608314
Li         -7.5384537058       -1.6981511189       -2.7745084011
Li        -12.9322042034        2.2230342071        2.4578633209
Li         -7.0299129302       -9.1260363114       -6.8287322994
Li         -8.8560493039      -11.4972054973       -4.4677936022
Li         -0.6413942223       -8.2432616575       10.9349659739
Li         -2.2887638339        0.7395643045        7.8473052486
Li         -3.3004525007       -8.6342115634        7.9174363152
Li         -0.7180407827       11.8877493009       -2.2056737782
Li         -0.7634119644       11.9921683334       -8.8279736684
Li          7.0208414844        7.5743883403        0.1293569986
Li         -3.9713227608        7.9847627012       -0.0193893618
Li         -3.6380087672        6.7694748331        9.6670435356
Li         -7.7120388799       -5.0491224603       10.8110806535
Li          3.0414082912      -11.6622574499        1.1273060488
Li          8.8263340240       -4.2882209778       -8.6504718813
Li         -9.6596048976        2.3650304158        4.3502935571
Li          6.8569019607        2.5162657737       -4.0589213086
Li         13.7646965499        0.5092854687        2.8663074726
Li         -7.5661522044        8.8487251599       -2.2130735476
Li          8.5777367282      -10.5060903144       -2.3613256076
Li         -9.2366107368        6.0310003700        3.3333472336
Li         -0.8238771731       -2.8315655737       -1.9743331442
Li          0.2834616916        5.1154292196      -12.0616230842
Li          5.7187563293       -5.4555425899       -6.7350990193
Li          7.4260966603        0.4925843008       10.2775846208
Li          2.5702844673        3.7207288992        4.2831519553
Li         -7.4143411929        5.8713794303        9.6246465067
Li        -12.8016974636       -2.4884830454        7.2691808345
Li          9.8605139846       -3.0064960600        1.6265253948
Li          7.2339147693        1.0597654805       -0.6200810325
Li        -11.8988569289        8.5637019418        4.0493106021
Li        -10.3383673363        0.8115274390       -2.0942197643
Li          0.0574525544      -10.3965603235        7.8109630787
Li          4.8738306173       -2.7331366979        7.0075180009
Li          3.1295516800        7.3197767574       -6.5014501786
Li          3.9022701984        1.2650650456       -2.2760214225
Li         -6.6709973713        3.4122374641        2.5182465976
Li          7.2832389944       -5.7863065299        2.0312631974
Li         12.2609934014        2.3892478728        5.9382388506
Li          5.4816542696       -5.7666595589        9.1709162207
Li          4.9348148499       -3.1557060158        3.2828311854
Li         -1.1783721807        2.5129270323        1.0061923298
Li          4.7593913116       -2.3023723457       10.7137601290
Li          9.0785533085        3.2003981136        7.9852337896
Li          7.3412764821        6.6246031292        7.4669661808
Li         -2.0791286961        8.2611122544        3.3162784891
Li          0.4731103453        1.9360502603       13.6801585369
Li          8.5293246791       10.7258863867        1.3782838569
Li          2.3333556974        4.6103778720       11.5062865895
Li         -8.7468717874       -5.8319365813       -7.5629265609
Li         -0.2447434776        8.5919750726      -10.4882941677
Li         -8.4104955963        0.3897239576       -9.3404871735
Li          0.1757611564       -8.4774119955       -4.2176129851
Li          6.5621367303       -2.7035754363       -0.1126104653
Li          9.8415552687        3.7725508276       -5.8551871193
Li         -8.3344594949        9.8141775746        4.3535243985
Li         -5.5312840246        9.1085962580       -5.4180132189
Li          8.1287878748       -3.4758700236        5.0504453193
Li          5.4972360932       -6.1925713417        5.4021643837
Li          2.4714744919        4.1969484318        7.9013729501
Li          7.2758013948        6.0409157442        3.6824303322
Li          6.0992821477        8.6099428450       -8.3298606641
Li         -3.5513635064        9.4094353746       -8.6671656622
Li         -2.5256890187        2.4621453125      -11.8416731318
Li          8.6578961920       -3.7108067682       -4.8783988002
Li         13.5194552961        2.0298812844       -0.6605745973
Li         -1.1921957751       -5.4733721942        8.8432598489
Li          2.6654486653       10.3388489796       -8.6068723321
Li         -2.9858491107      -11.9263532376       -1.8899450325
Li        -10.1051379113       -5.1681294174        7.4493002742
Li          3.5833335779        9.3556401303       -0.1633787984
Li          5.0891744316       12.5071691598        1.0743028951
Li         -5.8362512040        3.2212530854       -9.9256502382
Li        -10.7499868452       -1.7300350090       -4.7192614918
Li         -3.7885370700       -3.2803579542       -7.7692867317
Li         -2.0161065568       -6.5486893065       -6.7256705823
Li         10.9891758225       -6.2578106116       -6.1807483586
Li          8.7283637841       -6.5037504933        7.1653527150
Li         10.7538658547       -0.2476734682        8.3576876241
Li         -2.1376023952        9.1650171178        7.0728520670
Li         13.2165391919        3.5400956901       -4.1855767949
Li          3.9985480621        7.3369074251        9.2288360137
Li          1.0533148905        0.9891339711        6.5751110931
Li         -1.8414466785       -1.9085209372       10.2660156209
Li         -2.1807070206      -10.6736408167        4.7425576690
Li          7.4498754282       -0.4506715993        2.8438306199
Li          0.6290464132        3.0045188182       -2.5624181273
Li         11.3633561204       -3.7528452549        6.7926858936
Li          8.1418474929       -3.0248793739        8.8334186436
Li          3.1359929782       12.3963260569       -2.2469052414
Li          6.8682606500      -11.0372778514        1.0332897312
Li          4.2268283919       -0.1661807683      -13.2614971132
Li          9.2939170860        0.0213000828       -5.3831793892
Li        -13.0139899686        3.2853735553       -1.2870928113
Li        -13.2916451036       -4.2105568008        0.8685781669
Li          2.8082964836       -8.8431704281        5.7126902235
Li         11.8798420577        5.5055036414       -1.1318522576
Li         -8.3650439609        6.4283203430       -5.1062236778
Li         -6.3881283864       10.4388116161        1.1239206585
Li         -7.1055065287        6.0482755807        0.0743785270
Li          5.5346282489        9.9970392432        6.8430688508
Li         12.7294977481       -0.2584892895       -3.7074932882
Li         -2.0474781279       -1.0259507514       13.8789967149
Li          2.2983590998       -5.8150296369        3.6050213381
Li          0.2654556091        5.7348368008        2.0368283648
Li         -0.5367344246       -3.4456596391       -5.5429631211
Li         -0.2983636202        8.9611166853       -6.7430150111
Li          0.1761840876        5.9666703074       -4.6342597379
Li          2.4945642358        3.1463657736        0.6238028779
Li          6.0484921406       -9.2236553698        7.4712029564
Li          1.1819904173       12.2272054845       -5.5605175443
Li         -8.2876813625       -1.3700065417       11.9921904567
Li         -1.3087020344      -11.6107794012       -5.3253219777
Li         -1.5453364870       -1.7561133485        1.3052579018
Li        -12.6370092237       -5.2625829766        4.6208101415
Li          1.6492315720       -5.3805901730       -3.0555929902
Li         -7.9020880156       -9.3546761476        1.5913375830
