341

Li         -4.3096374457       -6.3359649629       11.1130625820
Li         -4.9938952330       -0.9990486689        6.3471421368
Li         -6.9304707915        6.2327949864       -0.0525559710
Li         -2.0082665966       -7.3544302726      -10.3066859328
Li        -10.0562532249       -3.6871009748        2.7499274220
Li         -7.5230381052       -8.0780772207       -3.1683067762
Li         -5.4815503762       -6.5927843308       -9.0459471898
Li        -13.1531223546       -1.1360866933        3.5566631653
Li         -5.9775280622       -4.7748326177       -2.0118398639
Li         -4.4604696104        3.4281771507       -0.9833100565
Li        -12.5547411404        1.6577135721        6.1329630298
Li         -9.7263992410        3.6495790197        0.5416856519
Li          1.6035253671       -2.3466894005        5.1188505473
Li         -3.3937629216        7.0264192382        9.5259420506
Li         -2.9523757500        5.8417063061      -10.4599213161
Li          2.2531714930      -11.2775684427       -5.3215542614
Li         -9.1734309867       -4.7971254297       -3.8712052376
Li        -10.0648482381        4.1218337381        7.9366551962
Li        -11.6431071884       -7.1108028829        1.7405358052
Li         -0.9510527214        3.4366700563        4.6001858588
Li         -6.9320012756        5.1151290615        5.9553980246
Li         -7.8214798616        2.6646674301       10.7497740268
Li          4.3747228671        0.2561661165        4.7182396821
Li        -13.7937795254       -2.7371698973       -2.8107410334
Li          1.7152913052       -2.8828196217        1.5523761276
Li         -9.5747905409        2.7008708689        4.2951624923
Li         -3.2914797375        6.0327979702        5.8640060265
Li         -1.4831922416        5.4833952406       -1.3554249420
Li         12.2766512377        3.6725532790        2.2463574989
Li          1.8090671384       -6.9471697165      -10.4123490927
Li          0.9496294118        1.5423798837       10.0731294416
Li          1.3825104999       -1.4465255678       12.4397438467
Li         -8.2871724118       -0.9367192194       11.9778224589
Li          1.0172425118       -0.5301880917       -4.1041812280
Li         -2.3352290008       11.5250605336       -5.7677822999
Li        -12.3596212531       -4.7320598954       -5.7471818503
Li        -10.7466399306       -8.0342406191       -4.9741599894
Li         11.9650118394       -4.4520660833       -3.2208822099
Li          9.4201647283       -8.6394279929        0.8035778512
Li         -7.0498943199       -0.0159208673        3.5384032042
Li         -1.1284156304      -11.9094695437        1.4937887533
Li          3.8359403292       -5.5382882143        0.2908559692
Li         13.0718020891       -3.5892455069        3.3304576610
Li          5.9507169941        3.4100883992        6.0229700083
Li          7.4693709424        5.8953379160        3.4913083114
Li          7.0393894362        1.7144878025       -7.8777804356
Li         -8.4296611397        0.4351131407       -9.3557516661
Li         -9.2549420961       -6.9123181884        4.6454329065
Li         -4.1095738555        0.9738752266        1.7465109451
Li          4.4381733981      -11.3830141462       -2.0989492467
Li         -4.4541758766        2.4963490571        5.1455487708
Li         -8.9953460216        3.9672761578       -7.9822666153
Li          6.1143617941      -10.8335187082       -5.4493003014
Li          3.4498124619       -4.2983716898      -12.7292937033
Li          3.3744009152        6.6234641616      -10.4885775187
Li          0.4963582658        6.6171162095        5.6672493464
Li          7.2694962784        0.8383398956       -0.7169255979
Li          0.5223428836       -8.8526817344        2.5731742532
Li         -7.3369308004       -3.7469123566        5.2977824435
Li         -3.3908974610       -4.8142085063        0.4539194012
Li          6.4603936432       -2.6381332700      -11.0505334538
Li          0.7113976048        2.4419571367       -6.3137641523
Li          0.8112167836        1.3244787093      -13.6329636451
Li          1.0978144007       -1.0649032712       -7.7169798549
Li          8.6706133775       -4.7032235326       -8.6481090841
Li         -4.4373086944       -2.7014861236        3.2444460096
Li          5.6332948651       -6.3798777949      -10.3612876915
Li          3.8010096758        3.0661440414      -11.9860390462
Li         12.2945460377        0.7843171937       -7.3242047310
Li         -0.3390722381       -4.7939929232      -12.7690321836
Li         -1.9883971230       -1.2718966327      -13.2561796626
Li         -3.7206402349       -3.9910075314      -11.3073671505
Li          0.7561129826        1.8918332599       -9.9867366449
Li         11.6373372835        6.5410610473       -4.9046679226
Li          4.1126538928        0.0364525526       -9.6675752598
Li          1.6649840129       -6.2645313741       -6.7043952652
Li         -3.3140399475      -11.8683769573       -1.6890680622
Li         -6.3320669533       -5.9048177127        2.4850720071
Li          3.1364544546       -2.5431150142       -1.7864826274
Li          3.7315553845        3.6146927061       -8.2687193099
Li         -7.7116070224        3.7149448431       -2.8382782697
Li        -10.9828160694        3.8014597668       -4.6815094543
Li         -1.6134359817       -8.8273258429       -0.6870221993
Li          7.1286844236        1.1528460637      -11.5525200667
Li         -6.1788066990        6.6958591608       -8.4941392516
Li         -4.9041080754        6.2446492592       -3.3344034647
Li        -11.6298672974        1.1223175115       -7.3240956174
Li         -2.1549552271        0.7447371565       -2.1352233619
Li         -7.3392455360       -2.4611879294       -6.2367651031
Li         -2.4658047997       -5.8559153588       -2.9391233816
Li          6.2221921274       -1.4563332230       -3.6150675731
Li          7.6909538397       -9.0039798167        4.2303631339
Li          1.8963888345        9.0811049992       -3.6888199182
Li         -9.4871142227        8.9778152693        0.7403442457
Li         -4.0413247212       -2.5779891200       -4.2126751438
Li          3.8409906884       -8.1668375253       -4.1931242189
Li          9.6588827858        6.4092720963       -8.2338638408
Li          5.7715680822        9.2646875555        2.8860631524
Li         -4.1891167879       11.1175667926       -2.4039968456
Li         -3.2974762091        5.0648906684        2.1435719235
Li         -4.4293189677       -1.5262082929       -0.8275469586
Li          6.9135107133        2.2390218015       -4.1795794801
Li         -8.8412178670       -5.9469826839       -0.2035417109
Li          7.7271377326       -7.7083250956       -4.2735725835
Li         10.7335400250        5.5889440423        5.2535521767
Li          8.3453682731        8.5152045997       -5.2752987060
Li          6.7607265361        4.7682080299      -10.1696614405
Li         13.5798826711        1.6323407397       -0.8051137874
Li         -4.9212916980        4.6960790333       12.2007435812
Li        -12.1447494053        5.3455160436        5.0250430748
Li          0.0367517424       -5.7839834372        0.3145242343
Li          6.0525346374       -8.1739041351       -0.9442472335
Li          2.0470076706        9.7739178666        6.7679414503
Li         -1.9331011010        8.4971465605       -3.5894467137
Li         -0.4943315062       -4.1905299404       -9.1403889717
Li         -1.9046349044       -0.0512267854        4.3497946210
Li         -5.2268155078       -0.3723629781      -11.3595110671
Li         -6.9649870894      -11.1919043395       -1.2544101113
Li         -2.0561815594       -0.6958698034       -9.5710686002
Li          9.1071192356        2.4836569357        4.0440183124
Li          4.1858450284        6.1497052084        1.6948025830
Li         10.5434062420        0.5088486659        1.0087626794
Li         10.0622308870        2.8423827249       -9.7276066915
Li        -10.2318221616        6.4073883497       -1.9754916214
Li         -7.5911610200       -1.5523083214       -2.7589608071
Li         -3.7470096520       -9.7669533198       -7.6577094698
Li          1.1800454747       -1.6514002975      -11.3923313080
Li         -5.1511542955       -8.0121919067       -0.4140029310
Li         -1.2856764266       -5.2593235749        8.9257069810
Li         12.3667547626        2.1497765876        5.7889448045
Li         11.5781314272       -2.9618366626       -6.7530413163
Li          1.2324346660        0.6090904564        2.9477140541
Li          0.0185939010        8.8063371596       -0.2911365764
Li          1.5777789010       12.0373704156        0.8498600862
Li         -5.7515921194        3.7858527416       -6.2229591746
Li         -6.8898168391       -6.5923676082        7.8352948240
Li          1.4927867511       -1.9617385220        8.7726428822
Li          3.2610020220       -3.1213066447       -5.4234184417
Li          0.3268588358        5.8595687083       -4.7890392890
Li          0.5412168805      -11.7519344400       -1.9483402015
Li         -4.0378312690       -5.5102174909        5.6775173275
Li          2.6462200182       -8.3369358857        9.5223216677
Li         10.6164287422        7.1297056781        1.6909312755
Li          0.4915108408        7.4539274624        9.3691672735
Li         -5.2793669332        0.9673841602       -3.8370541112
Li          1.0152262885      -11.9292059338        4.6918815512
Li          8.5360804393       -4.0504940226       -4.8868013961
Li          0.3307140599        5.4002926810       -8.5216652844
Li          5.8499823429        9.9543810584        6.5864859530
Li          2.5917276474        3.0766493801        0.5125887592
Li         -8.0590921827       -1.9539024201        8.4361020824
Li         12.9381513308        4.5085659108       -7.8639650683
Li         12.0979959725       -5.8862446467        0.3578335348
Li         -1.0050934432        4.2863542705        8.3648196261
Li        -10.1885037952       -0.0191492204        1.6512247804
Li         -4.7198200743       -3.6402519019        8.7675279804
Li          5.4287095094       -5.0814014387       -3.0286238250
Li          8.9669963216        3.9812119009        0.4992039882
Li          4.9527449130       10.3687462438       -5.5882023236
Li        -10.6210152407        0.5601279779        9.1737761078
Li         -1.6605257819       -2.6615055929        6.6419877119
Li          7.5630876736       -0.0760710530        6.5060716827
Li         10.2571500668        8.5388837921       -1.9059264126
Li          4.8256799557      -11.5114184581        4.5791833402
Li         -5.2789367466        0.0338178847        9.8828797931
Li         -5.8418887156       -8.7546178587        4.8794778314
Li         10.6900625012       -0.9561914183        4.5303785137
Li          4.2921547090        0.7855344620        8.3671820227
Li         -7.2438950887       -2.6251844219        0.9295196950
Li          2.2687499424        6.0916066026       -1.5523335759
Li         -9.4785552609        7.6845148118        6.7331459199
Li          1.9499821772       -4.9663294751       11.0286334879
Li          4.2467530137        6.8434366318        5.3833843578
Li          2.5379294801        4.7564048199       11.3624218836
Li         -9.9385834067       -1.0281244912        5.4327852478
Li          6.5700351562      -11.2064390681        1.1745715026
Li          7.4620093726       -0.6124882364        2.7719080374
Li         -1.1091154680        5.2674165304       12.0622500193
Li          3.5794421323       12.0620430307        4.1453762614
Li         -2.0052241416       -0.6174241516       13.8888267720
Li          0.4402577497        5.7462314332        1.8893284349
Li         -0.2910581261       11.5776112145        4.2090493337
Li          5.9266963758        3.9577081547        9.7190992832
Li        -11.6348338315        8.9542653296        3.8891493978
Li         -2.9351617231       -7.6488641253        2.6759669184
Li          2.0835801259       -5.3422414854        7.3381466522
Li         -2.2305041669        0.9448925347        7.7878497323
Li         10.4364236774       -6.3348039180        3.8150522155
Li         -5.4527060390        1.0601523488       13.4218668654
Li          0.7408078374        2.1660489913       13.6242332880
Li        -13.4011370546       -0.0805647866       -0.2082209761
Li         -4.7274994769        3.6061855024        8.6590598106
Li         -4.1917580354       10.9430946202        4.2440174167
Li         -1.0981403065        2.5471728291        0.9247716129
Li         -5.7819520976        3.1839283600      -10.0039728136
Li         -7.1327330114       -3.2049906236       -9.7819292543
Li          1.4926091003       -5.4904245581       -3.0030874729
Li         -5.5197191033      -11.9538689272       -4.8583105821
Li         -2.1083998533       -0.0084726056       -5.8322144832
Li          0.0879851269       -9.4261527364       -7.8544958309
Li          8.6247009591        5.4015340178       -3.0617621363
Li         12.9679662491       -2.1554110445       -0.2373181886
Li          3.3072846871        7.0969049467       -6.6940574603
Li          3.8464021592        9.2355151426       -0.3957167165
Li          0.9315135558       -0.0120001671       -0.5546542863
Li         -5.2449179771        0.2238999959       -7.6164070915
Li          4.0198262303        0.5934705492       -6.0006784744
Li          3.3558634472       -3.7244650669       -9.0800756321
Li         -2.2924243392       11.4574246490        0.9218297515
Li         -2.9369116453        6.3792587433       -6.6831861847
Li        -12.1720934861       -6.0249198467       -2.0013612179
Li         -4.7118160205      -10.8607164184        1.8300404071
Li          3.9622718445       -8.9593743537       -7.9579467522
Li          3.6654852791        4.1099764171       -4.5200952300
Li         -8.4242211352        1.1237900989       -5.5982158425
Li        -10.4104907084       -9.2850563444       -1.2615010054
Li          8.7948410968       -5.5142899481       -1.3497625247
Li         -5.6642295053       -5.8155558065       -5.4838632463
Li        -13.5096989102        0.9228191607       -3.9783868938
Li         -1.1707445825       -4.4533689157        3.5668127345
Li         11.0542978525       -8.1385035877       -2.6100987109
Li          9.4223012782       -0.9362716345       -9.2380546889
Li          5.3118075140        7.3276829029       -3.4118765182
Li         -7.1603187366        1.0275787288       -0.2320253514
Li        -12.8564316118        2.6160534677        2.4140696402
Li         -7.3011902690       -9.0657158252       -6.6697869476
Li         -9.1813537757      -11.3415786117       -4.2571459333
Li         -2.4459815869      -10.5074300115        4.9190636187
Li         -1.8355194072       -1.6520447900       10.2789109247
Li         -3.4939351372       -8.3682880550        8.0596250286
Li         -0.3928021644       11.8441432127       -2.4633061265
Li         -0.4670667326       11.8310138215       -9.0882320127
Li          7.2363666250        7.3674385935       -0.0869971300
Li         -3.7402440564        8.0716960539       -0.1902229587
Li         -5.7267904326        8.6529257000        6.8978900963
Li         -7.7841115613       -4.6309953954       10.8930754993
Li          2.7278426448      -11.7198289384        1.2987904128
Li          6.3618668223       -2.0426764743       -7.3415817974
Li         -7.5543853847        1.5335524969        7.1353285681
Li          5.6131000599        4.2307956387       -1.2485284124
Li         13.8021146053        0.1713542000        2.7476268421
Li         -7.3228775702        9.0005307213       -2.3913101501
Li          8.2782314889      -10.7907688041       -2.2374694982
Li        -12.2646528387        6.2801630960        1.2842583913
Li         -0.9015721144       -2.8514999125       -1.9661100668
Li          0.3762021424        4.8688261277      -12.1999818221
Li          5.5416355071       -5.7475681464       -6.6962843390
Li          7.5073290095        0.4660046611       10.1774615539
Li          2.7016179085        3.7160848485        4.1615310598
Li         -7.2085866056        6.2457745360        9.4989508708
Li        -12.8452689404       -2.0116737366        7.3066882699
Li          9.7944786250       -3.2582901530        1.5948574944
Li          9.6353391789       -1.8044161587       -1.9483841395
Li         -6.5622151773        3.6295112428        2.4366982511
Li        -10.3176754843        1.0473371882       -2.1164080177
Li         -0.1909494350      -10.2326657154        7.9735740096
Li          4.8441654248       -2.7449295517        6.9965106165
Li          6.3021312162        8.2708507264       -8.5595234311
Li          3.9348384455        1.1039680663       -2.3603228985
Li         -9.0496365347        6.3338555912        3.2109537839
Li          7.1419858819       -5.9551486677        2.0676176640
Li         13.9495976126       -1.2804884834        6.2642604376
Li          5.3788741073       -5.7539152512        9.2177689167
Li          4.8756399203       -3.2355495351        3.2799612652
Li        -10.5440212063       -2.6542005465       -0.9698962537
Li          4.7575390004       -2.2459573495       10.6928885044
Li          9.2184943796        3.0868252698        7.8327627289
Li          7.5703494136        6.5481355778        7.2623521829
Li         -1.8272631264        8.3562477170        3.1346233151
Li         -2.6585745168        3.1175774642       14.8427587416
Li         -2.4537538079        1.9801686487       11.3077136224
Li          8.8360780377       10.4995984529        1.0956200346
Li          4.1486873166        1.3149342684       12.0043932020
Li         -8.9316498798       -5.7405115991       -7.4640094114
Li         -0.0491032049        8.3878281008      -10.6889373805
Li        -10.5579632533       -2.4394046345       -8.2398252210
Li         -0.0705083421       -8.5658505996       -4.1006551186
Li          6.4955395289       -2.8954271709       -0.1332765714
Li          9.9223762346        3.3785176566       -6.0126321529
Li         -8.0327162740       10.1044907857        4.1618758886
Li         -5.2948670669        9.1431686710       -5.6073027521
Li          8.5934370972       -6.6172070957        7.2060982882
Li          5.3619713984       -6.2459812774        5.4559670933
Li          2.6348444520        4.2575877838        7.7698222913
Li          9.0738097475        9.0164905868        4.6792806826
Li          6.6506511980        5.2734478252       -6.3838520514
Li         -3.3231136763        9.3294000832       -8.8695386404
Li         -2.5032196233        2.2980420349      -11.9181169630
Li          7.8024409102       -8.3955254272       -7.9259511857
Li         10.2888532797        1.9595745546       -2.5164417825
Li         -0.8015789132       -8.0034981017       11.0654006751
Li          2.9159174842       10.0883485660       -8.8526065487
Li         -3.9761098162       -8.8830160785       -3.9508657754
Li        -10.2114843784       -4.7539233496        7.5191391706
Li          6.9327229242       10.5081801686       -2.2578688297
Li          5.4429568059       12.3675209355        0.7764682331
Li         -2.5325391302        2.8760336581       -8.1960577897
Li        -10.8102035358       -1.5316961085       -4.6920445793
Li         -3.9071986915       -3.3293569855       -7.7354962748
Li         -2.2205140467       -6.6252851455       -6.6388091182
Li         10.7894595054       -6.6852552918       -6.1508853882
Li          8.0691082404       -3.6141477553        5.0350142598
Li         10.7992679955       -0.4000054676        8.2624362611
Li         -1.8430616666        9.3317624490        6.8768262047
Li         13.2992179740        3.0843258042       -4.3553718314
Li          4.2534666379        7.3840586781        9.0263875684
Li          1.1155419095        1.0704461777        6.5175677872
Li         -1.3949971944       -4.3666189753       12.6304338498
Li         -0.7411201811       -7.2635094859        5.8389409329
Li          4.2522820920       -0.2746708259        1.0406256563
Li          0.7078798086        2.9257043884       -2.6648498478
Li         11.3037187942       -3.9490562786        6.7660765997
Li          8.1126511441       -3.0950741018        8.8073791541
Li          3.4719306045       12.2484541934       -2.5326190680
Li          4.3544900724       -8.5243350691        2.4477539399
Li          4.1662946526       -0.5424749025      -13.3179624958
Li          9.2728176363       -0.3473615288       -5.4662473146
Li        -12.9199195713        3.6106230317       -1.3470644439
Li        -13.4026816027       -3.8370674295        0.9452656862
Li          2.5967688933       -8.8084305104        5.8346609614
Li         12.0323586963        5.1430256264       -1.3334510669
Li         -8.2001856323        6.5504227219       -5.2371002954
Li         -6.0837575794       10.6121934807        0.9148999330
Li         -5.5948816666        7.5977730238        3.2129691515
Li          7.3766843436       12.3830061240        4.0717410409
Li         12.7091592932       -0.6906125826       -3.8024703965
Li         -4.8651908957       -2.6904355788       12.4255291386
Li          2.1633336851       -5.8070794288        3.6732308839
Li          1.9892147457        8.9135437523        3.0074125721
Li         -0.6504237578       -3.5419576945       -5.5218880207
Li         -0.0752009998        8.8265813729       -6.9504248442
Li         -2.5396577901        3.5168197402       -4.4353546718
Li          5.8512571281        2.7929752113        2.2758434232
Li          5.8373853481       -9.2523075554        7.5789648457
Li          1.4991297052       12.0719949026       -5.8339333325
Li        -11.1606780995       -2.8899889331       10.5851261902
Li         -1.6454533641      -11.6781335093       -5.1392957735
Li         -1.5786293078       -1.6942536310        1.2918621626
Li        -12.7648106123       -4.8377404713        4.7121906042
Li          2.1958445610       -8.6379980673       -0.8539459030
Li         -8.1441654593       -9.1094876633        1.7522990910
