60

Li         -5.8803204006        1.1608465471        2.8879015948
Li         0.6540137674       -1.7720619496        3.3853696510
Li         4.3585748491        3.3391371346        5.1428577113
Li        -0.6881806862        3.6208738665       -1.3343869704
Li         0.3884544841       -5.1242116228       -5.5480648050
Li        -0.9895764779        6.5270101895        0.8273978791
Li        -1.3474238579        5.9091953977        4.5227556195
Li         2.5444756133        5.9302268252       -0.9295297465
Li         3.4506748184       -2.8454639228       -5.0869314769
Li         2.8474691042       -0.1350518457        6.1444575908
Li        -6.8309976232        3.2429842499       -0.0997956885
Li        -2.4714845481       -2.4274777439        0.4530745536
Li        -1.0117050503       -0.3131749165        6.4486995421
Li        -3.1024004916        0.4203392587       -6.0065895081
Li        -4.1567895729        4.6517144080        2.2480272552
Li        -5.3652581766       -2.7735908734        2.4550357529
Li        -5.2170038055        2.1493652648       -3.2970341230
Li         3.2193822306        1.0173185681       -5.7329190381
Li        -2.2827453925       -3.5972382422        4.5378050929
Li         0.8527565770       -5.5743038207        3.5306725473
Li        -1.5221850538       -5.6262295027       -2.1843161518
Li        -2.5616583822       -5.8105889091        1.4767934512
Li         0.7193828436       -3.8381659324        0.3404032349
Li        -6.1751924171       -0.5789791049       -0.5239225947
Li         2.2844168107        1.3793437276        2.8711956563
Li        -2.9225254877       -0.6652557419       -2.5261029768
Li        -3.4464563951        1.7748627288        0.0213797366
Li         0.0000002525       -0.0000002148        0.0000001039
Li        -0.8322687493        3.0133068312        2.2925919273
Li         5.2444933760        3.6145009722        1.3916351518
Li         2.4714820120        2.4274800179       -0.4530763153
Li         2.4733153714       -5.5247242539       -2.4632214182
Li         5.3764565249       -3.2596813570       -1.7820029323
Li         3.9259836509       -5.4094958769        1.0975703751
Li        -4.8931653335       -4.0076597702       -1.5816385354
Li        -2.4700686698       -0.0865875259        3.0423976405
Li         0.6278296151        2.9862188275        5.7788985449
Li        -3.9135191100        5.3226846860       -1.4946784769
Li         0.9967824075       -3.4675829263        6.6461827835
Li        -4.7019781189       -0.9479119412        5.7955904065
Li        -3.2082087503        2.6469883383        5.3461710326
Li         0.2032799312       -1.4154889869       -6.4750329629
Li         3.4154693702       -1.5590965752        0.9656326440
Li         6.7816893592       -2.8996437186        1.6703882997
Li        -2.8834227018       -3.3566881510       -4.9683240298
Li         0.0114957756        2.3392578910       -7.1914666529
Li         2.0538629178        5.1910135156        2.7527743001
Li         0.7060399267       -7.4848808150        0.2721181716
Li         6.3161345028       -0.3733884497       -4.0697694985
Li         3.0769742322       -0.4102073600       -2.3935074934
Li         1.7237308951        4.2228140479       -4.2354835078
Li        -0.6230462120        6.9069590775       -2.9157692982
Li         0.2296207480       -2.5199972866       -2.9369299668
Li         5.0311117839        3.0471125966       -2.8122966194
Li         6.2025303419        0.3886183516       -0.3468564290
Li        -0.0203777027        1.0629854321       -3.7280441035
Li        -2.2488924079        3.9619963784       -4.6853385096
Li         5.6811812226        0.2258158411        3.4552704930
Li         3.9535102739       -3.2362261339        4.2270063154
Li        -6.0557240145       -1.4399154996       -4.2250252296
