78

Li         -0.4958343466       -2.3595149573       -6.6649767242
Li         -0.0298472764       -4.4979367325        1.2636308879
Li          3.0789234970       -4.3487034034       -0.6300626124
Li         -2.9908384289        0.7656888367       -6.2907655910
Li          1.5371082318        1.7596506632        6.2045167882
Li          4.9341386165       -5.7160390011        2.2296898212
Li          4.7572376050       -0.0529679607        5.1498199893
Li         -4.6329290616       -6.0394758993       -3.1438449490
Li         -0.5267450614       -1.0720102035        2.9938841838
Li          2.2165285504        4.7272182936       -6.4007593979
Li          4.7033010234       -4.5889773866       -3.9439703667
Li         -1.0476399048        2.4507381340        3.7134078636
Li         -1.6541605698       -3.9202920615        5.1065162608
Li          3.1509245212        7.3880527941        3.1561970664
Li         -5.9935249189        3.9209243350       -1.4690789520
Li         -2.0627651293       -3.7044159284       -1.6970825340
Li          1.1483377068       -3.3852304548       -3.5223620331
Li          6.4480597273        2.4058967455       -1.9261847254
Li         -7.5956885554        0.4263707952        3.8927562377
Li         -6.6197320052        0.5853040260        0.2544004952
Li          4.5080598187        2.0117758626       -5.1816482797
Li          6.7538408262       -3.9554670295       -0.7873254922
Li         -4.7983002316       -6.0763720541        0.5553196058
Li          1.7232418596       -6.9877452709       -2.9761566509
Li          4.1249643249        3.8235606086        4.3142377484
Li          0.8517641538        3.1470700751       -3.3251892991
Li         -1.3576908639       -5.7149892938       -4.8321397523
Li          0.7904069587       -1.5029926892       -0.3586497524
Li          6.1207897493       -1.1062108319       -3.5151695482
Li          4.5576839894       -0.9663899317       -0.1818028137
Li         -4.1316412855        6.6515915048        0.6264742545
Li          0.8659082632        1.1703812421       -6.4236860031
Li         -3.2120600088        5.2948934192        4.1223202119
Li         -1.7260119311        3.4740320777        7.2684360512
Li          2.4003170801        0.9701043128        2.6248272224
Li         -0.6719799139        7.4135984463        2.2962483702
Li         -0.2713557302        1.7128979817        0.0238677287
Li         -1.5461105658        4.2725971308       -5.9370164218
Li          4.7995557406       -3.8711017817        5.5571223396
Li          1.5202690950       -2.0272483465        5.9976176256
Li          3.9229300474        5.1540116814       -2.9966834204
Li         -3.3427136868        3.1381943332        0.9216925491
Li          0.6840102549        5.4441388189        5.2703001651
Li          8.2397385460       -0.5088899978       -0.3758563900
Li         -5.0204922165       -1.9377476921        5.4751293108
Li         -6.4141599657        3.7772693918        2.5075211990
Li          3.3683334615       -1.7319420250       -6.2065977928
Li          5.0474481992       -7.3545550249       -1.2256750688
Li          2.5641031889       -0.0773677398       -3.1061412035
Li         -3.9978128120        0.2361443844        2.8338139004
Li          3.1721004971        2.3911181580       -0.6123096967
Li          2.9205932695       -2.5987709465        2.6641461172
Li         -3.1407710249       -0.4066582670       -0.6218440156
Li         -3.2513458244       -3.1669707978        1.8611155535
Li          6.6363960369       -2.2190124538        2.6385976000
Li         -5.2630513909        3.6849124265       -5.2571901158
Li         -1.0184280521       -0.4128064924       -3.5160534351
Li         -5.5507828756        0.4027640123       -3.3896153883
Li         -3.7785343034       -2.6624954569       -4.7505044367
Li         -2.7424213528        2.6714861165       -2.7801790828
Li         -4.9720711424       -5.4941407321        4.2536473328
Li         -3.4426208260        6.3178345662       -3.1961098829
Li         -1.5222013073       -7.2018995230       -1.0521511947
Li          1.6244622649       -5.6805482092        4.2996029690
Li         -1.4179245545        8.8175636915       -1.1265400595
Li          2.1269950510        7.3415707855       -0.4831565263
Li         -6.7915689454       -2.8255286429        2.1838387002
Li         -0.8938339539        5.2289965494       -0.7848657256
Li          1.7923410508       -7.5948041212        0.8906850193
Li          2.0139382274       -5.3053927065       -6.5034752698
Li          5.0829470220        5.1392254076        0.7262611663
Li         -5.7537246959       -2.8678336352       -1.4066111020
Li         -1.8253799271       -0.1911728211        6.3197240962
Li          6.0853673908        1.6326383128        1.9186961586
Li         -4.8136931770        2.1964379444        5.6723155659
Li          1.4568429496        4.4360789710        1.8355487039
Li         -1.8164269493       -7.0917093052        2.8267800243
Li          0.4049059764        6.8415949725       -3.8512751779
