83

Li         -1.5701284239       -3.9453678634        3.3882967032
Li         -4.4044940178       -5.5839805256       -0.7300954689
Li          3.7866640602       -0.3108497501       -0.6744069595
Li          4.0121756782        1.6285759796       -6.3113468374
Li          4.2190997732        0.4618014792        5.8267499684
Li          1.9591532932        7.7302968344        4.2625130287
Li          1.9957049534        1.9482287820       -3.2706286915
Li          0.6833369824        1.9404529196        6.8528571121
Li         -3.9410008521        4.7686133587        3.5865837732
Li          7.3045792417        4.5591476779       -0.0525009010
Li         -1.8102583742        2.2467196439       -2.5731760810
Li          2.2346623876       -6.7698669508       -3.7737541994
Li         -0.0034646158       -4.2072965196        6.7869503699
Li          0.3162183649        2.7352919640       -6.5955059941
Li         -3.1459033805       -0.6796370143        4.3747491180
Li          2.5170413352        1.0355082617        2.7462075531
Li         -1.0907180230        2.2475784993        3.4972685861
Li          5.6271105513        3.0871919930       -3.1712276407
Li          5.2529342589       -6.6705881538       -1.4146460379
Li         -0.9366943558       -0.9212269186        1.5471345556
Li          6.1067393647       -0.5801268550       -3.7429757414
Li          2.8570419541       -3.8628750126       -1.4751361157
Li          4.6904887265       -5.1125606326        1.9587615420
Li         -7.5474560799       -4.0506387316        0.8406063925
Li          3.8675785893        3.2155025995       -0.0039938894
Li          0.5659576548       -1.0951499366        4.8767234648
Li          0.5124623945       -1.0611838066       -1.6528136013
Li          1.3574378991       -6.0386386672        3.6730990978
Li         -4.2173862658       -2.4849856298        1.1383027758
Li         -2.9409670304       -1.4516069876       -2.0521815032
Li          7.1505902279        0.8120390657       -0.2977159118
Li         -3.6265464750       -4.5506459585       -4.2420830291
Li          2.1111586764       -4.3518241302       -6.7710394107
Li          2.0160168161       -1.3692752319        8.2593926029
Li         -0.8958219829       -4.1980939992       -0.2226347485
Li         -0.8795958145       -6.6717541074       -6.0412050897
Li          1.4089738586       -0.7376829668       -7.9091686451
Li          3.5034687774       -3.2798801180        5.2253688442
Li          0.4257836175        1.9833275450        0.1059157624
Li         -1.7757786850       -7.2834309606        1.5462176013
Li         -1.6833715593        7.6837048991       -1.3802575978
Li         -2.2136139947        4.4954539180        0.4122347864
Li          5.4660157232       -1.3061048899        2.5496689351
Li          2.6859452324       -1.4561803714       -4.4893929760
Li          2.8419092201        5.0877308423       -4.9618965644
Li         -3.8530377763       -3.7748742161        6.3362309434
Li         -4.8046720216        7.1108488255        0.6758471481
Li         -1.7615351383       -0.8996894800        7.8218290505
Li          1.7251282027       -6.9449258565        0.0601298830
Li          5.9437406512        2.5053060384        2.9479912058
Li         -0.1064388884       -3.8761660097       -3.8057163088
Li         -6.2020954885        3.6250665815        0.5337611672
Li         -3.5964310437        1.1979925540        0.7250349691
Li         -2.0535411787       -7.0256874698        5.3088803482
Li         -7.0568230868       -0.2070877051        0.6256142095
Li         -5.4610932257        1.3052626442       -2.5474304246
Li          5.0310939722       -1.8841710714       -7.2695247175
Li          6.3687701953       -3.0050630155       -0.7981667820
Li         -0.6248200057        5.2698616706        5.5153955040
Li         -3.1350256198        2.4718950627        6.5294357305
Li         -1.4592128354        7.5308375574        2.4963484367
Li          4.6433928663        6.1406074049        2.1186935248
Li         -3.5360252713        2.7358346909       -5.6549794938
Li          1.1152341259        4.8666737989        2.1410397109
Li         -0.8596969730       -0.2696205608       -4.9482687116
Li          1.0170270664        5.0883069292       -1.6110963554
Li          2.0481754911       -2.7227979151        1.8311460990
Li         -1.5682003441       -3.1275690607       -7.1804605511
Li          1.4621797470        8.2478694503       -3.4090123212
Li         -4.4239228214       -1.0127136957       -5.4543759754
Li         -2.2200525074        0.4230082362       -8.3084165338
Li         -5.5214126055       -0.3954618894        7.1475571963
Li         -1.3192009373       -7.1744031345       -2.3186048812
Li          1.7400345354        8.1261693197        0.4340195681
Li         -4.8858861659       -5.6130657194        3.1112458399
Li         -6.5497175319       -2.2135542785        3.9912059786
Li         -1.0958046104        5.5036243995       -4.5102903978
Li          3.1461500384        4.0833829105        5.0220368622
Li         -5.8967718986        1.5849809946        3.7969909896
Li         -4.3366179490        4.9990849775       -2.5469752629
Li          4.4620522410        6.4914525060       -1.7474547750
Li          5.1582973886       -4.2738473478       -4.3373551434
Li         -6.3262902794       -2.5230816999       -2.3681246677
