11

Li         0.0363384041       -0.0000000038        0.0587969232
Li         0.1607189687       -0.6269037931        0.2600493968
Li        -0.4773785704       -0.3562891495        0.2910932063
Li        -0.4773785767        0.3562891349        0.2910932031
Li         0.1607189575        0.6269037897        0.2600493911
Li        -0.1883685752       -0.5568577821       -0.3047875131
Li        -0.5784905611       -0.0000000108       -0.2806486319
Li        -0.1883685851        0.5568577673       -0.3047875182
Li         0.4738525161        0.3562891408       -0.2967984867
Li         0.4738525225       -0.3562891437       -0.2967984835
Li         0.0076904970       -0.0000000072       -0.6429275517
