12

Li        -0.0000000386       -0.0000000042        0.0303978772
Li         0.1886282715       -0.5805391000        0.2855044707
Li        -0.4938363716       -0.3587929022        0.2855037135
Li        -0.4938363780        0.3587928873        0.2855037102
Li         0.1886282611        0.5805390973        0.2855044655
Li         0.6104146107        0.0000000024        0.2855049355
Li        -0.1833029696       -0.5641495454       -0.2949282725
Li        -0.5931816062       -0.0000000110       -0.2949287292
Li        -0.1833029797        0.5641495307       -0.2949282775
Li         0.4798945794        0.3486635879       -0.2949275417
Li         0.4798945856       -0.3486635906       -0.2949275385
Li         0.0000007160       -0.0000000073       -0.6505372105
