30

Li         0.0205863170        0.0072055149        0.0006350819
Li         0.0469233148        0.0262176182        0.7161641127
Li         0.1854275732       -0.5561108284        0.3440311860
Li        -0.4574073028       -0.3347726417        0.3578715620
Li        -0.4594893582        0.3450928919        0.3438235042
Li         0.2019905188        0.5818622777        0.3519417360
Li         0.6229628091       -0.0064023122        0.3520773012
Li        -0.3067550022       -0.9234675848        0.0156343331
Li        -0.9545619970       -0.6906198273        0.0336851633
Li        -0.9659328388       -0.0023357463        0.0154220588
Li        -0.9586721485        0.6852627058        0.0015417110
Li        -0.2996121458        0.9143061143        0.0132933476
Li         0.6066222561       -0.0107579453       -0.3365170658
Li         0.1927456504        0.5675911701       -0.3366503460
Li        -0.4736910048        0.3498362243       -0.3524630612
Li        -0.4752420941       -0.3476964546       -0.3404530031
Li         0.1854868319       -0.5712956142       -0.3522507869
Li         0.0155617950        0.0034504120       -0.6913529844
Li        -0.5947644141        0.0118279260        0.9474097839
Li        -1.0860668694        0.3516409961        0.6010633628
Li        -1.0823431953       -0.3446647992        0.6163085057
Li         0.7758545622       -0.5885457277        0.0136396789
Li         0.3464136689       -1.1384577404        0.0019619863
Li        -0.1737921238       -0.5764366639        0.9475453492
Li        -0.6684665896       -0.9230139147        0.6164417859
Li        -0.0106001613       -1.1512108459        0.6014096941
Li        -0.2229602698        0.6148863110        0.9185768195
Li        -0.7077728578        0.9356752411        0.5769697224
Li         0.5169837163       -0.4191077440        0.9188151028
Li         0.6642619921       -0.9815994510        0.5774115573
