38

Li         0.3475389139        0.3475389139        0.0000000000
Li         1.0361030721        0.3464558205        0.0000000000
Li         0.3464558205        1.0361030721        0.0000000000
Li        -0.3475389139        0.3475389139        0.0000000000
Li        -1.0361030721        0.3464558205        0.0000000000
Li        -0.3464558205        1.0361030721        0.0000000000
Li        -0.3475389139       -0.3475389139        0.0000000000
Li        -1.0361030721       -0.3464558205        0.0000000000
Li        -0.3464558205       -1.0361030721        0.0000000000
Li         0.3475389139       -0.3475389139        0.0000000000
Li         1.0361030721       -0.3464558205        0.0000000000
Li         0.3464558205       -1.0361030721        0.0000000000
Li         0.0000000000        0.0000000000        0.4914942456
Li         0.7047760599        0.0000000000        0.4983519312
Li        -0.7047760599        0.0000000000        0.4983519312
Li         0.0000000000        0.7047760599        0.4983519312
Li         0.0000000000       -0.7047760599        0.4983519312
Li         0.6912794463        0.6912794463        0.4876542482
Li        -0.6912794463        0.6912794463        0.4876542482
Li        -0.6912794463       -0.6912794463        0.4876542482
Li         0.6912794463       -0.6912794463        0.4876542482
Li         0.0000000000        0.0000000000       -0.4914942456
Li         0.7047760599        0.0000000000       -0.4983519312
Li        -0.7047760599        0.0000000000       -0.4983519312
Li         0.0000000000        0.7047760599       -0.4983519312
Li         0.0000000000       -0.7047760599       -0.4983519312
Li         0.6912794463        0.6912794463       -0.4876542482
Li        -0.6912794463        0.6912794463       -0.4876542482
Li        -0.6912794463       -0.6912794463       -0.4876542482
Li         0.6912794463       -0.6912794463       -0.4876542482
Li         0.3448236258        0.3448236258        0.9776167684
Li        -0.3448236258        0.3448236258        0.9776167684
Li        -0.3448236258       -0.3448236258        0.9776167684
Li         0.3448236258       -0.3448236258        0.9776167684
Li         0.3448236258        0.3448236258       -0.9776167684
Li        -0.3448236258        0.3448236258       -0.9776167684
Li        -0.3448236258       -0.3448236258       -0.9776167684
Li         0.3448236258       -0.3448236258       -0.9776167684
