62

Li         0.0000000000       -0.0277731805        0.3923981183
Li         0.3536440736       -0.4937974076        0.0118950803
Li         0.0000000000       -0.0013232959       -0.2773093418
Li        -0.3536440736       -0.4937974076        0.0118950803
Li         0.3590916607       -0.5279540778        0.7004077907
Li         0.5800190413        0.1506609667        0.7191434484
Li         0.5676790824        0.1827345449        0.0287290268
Li        -0.5676790824        0.1827345449        0.0287290268
Li        -0.3590916607       -0.5279540778        0.7004077907
Li         0.0000000000       -0.0429398776        1.0740609427
Li         0.0000000000        0.5808682549        0.6907176201
Li         0.0000000000        0.6026500868        0.0132484519
Li        -0.5800190413        0.1506609667        0.7191434484
Li        -0.5706134850       -0.1826549327       -0.5788147711
Li         0.0000000000        0.9870403643       -0.8887975079
Li         0.7071153552       -0.9859574071        0.3007175446
Li         0.9397970400       -0.3179780189        0.3245037490
Li         0.3590916607        1.1091825739       -0.2842002457
Li         0.9411516729       -0.6852559971       -0.2897459664
Li         0.0000000000        0.0044609562       -0.9488169900
Li        -0.9397970400       -0.3179780189        0.3245037490
Li         0.0000000000       -1.1928131054       -0.8970675152
Li        -0.7071153552        0.9708093921       -0.8761227110
Li        -1.1417436146       -0.3640861523       -0.8804857797
Li         0.3597618928       -1.1079754730       -0.2987073477
Li         0.9397970400        0.6787087047       -0.2749243786
Li         0.5706134850       -0.1826549327       -0.5788147711
Li         0.0000000000        0.0097280647       -1.6203007890
Li         0.5809537645       -0.1805647402       -1.2674868507
Li         0.0000000000       -1.0047616649        0.3091136639
Li         1.1417436146       -0.3640861523       -0.8804857797
Li         1.1346883134        0.3706052532        0.3411071621
Li         0.0000000000        1.2118951100        0.3193770794
Li        -0.5809537645       -0.1805647402       -1.2674868507
Li        -1.1583224094        0.0007884508       -0.2737980787
Li        -0.3597618928       -1.1079754730       -0.2987073477
Li        -0.5809537645       -0.7919619238       -0.8997798668
Li        -1.1346883134        0.3706052532        0.3411071621
Li        -0.3590916607        1.1091825739       -0.2842002457
Li        -0.9397970400        0.6787087047       -0.2749243786
Li        -0.5800190413        0.8076351604        0.3240255026
Li         0.7071153552        0.9708093921       -0.8761227110
Li         0.5809537645       -0.7919619238       -0.8997798668
Li        -0.9411516729       -0.6852559971       -0.2897459664
Li         0.3597618928        0.4985125416       -1.2648826562
Li         1.1583224094        0.0007884508       -0.2737980787
Li        -0.3597618928        0.4985125416       -1.2648826562
Li        -0.3536440736        0.4849853655       -0.5767652390
Li         0.3536440736        0.4849853655       -0.5767652390
Li         0.5800190413        0.8076351604        0.3240255026
Li        -0.7071153552       -0.9859574071        0.3007175446
Li         0.0000000000       -0.5971999382       -0.5869656130
Li        -0.9411516729        0.3082808893       -0.8872797163
Li         0.0000000000       -0.6013254830       -1.2749505710
Li         0.9411516729        0.3082808893       -0.8872797163
Li         0.9112292410        0.7125058618        0.9095953288
Li        -0.9112292410        0.7125058618        0.9095953288
Li         0.3569030484        1.1216946481        0.9073815591
Li        -0.3569030484        1.1216946481        0.9073815591
Li         0.3569030484        0.5187452624        1.2700078616
Li        -0.3569030484        0.5187452624        1.2700078616
Li         0.0000000000        1.0548414514        1.4788067513
