7

Li         0.6125595354        0.0000000000        0.0000000000
Li         0.2172112362        0.5441502514        0.0000000000
Li         0.2172112362       -0.5441502514        0.0000000000
Li        -0.4224757494        0.3363033503        0.0000000000
Li        -0.4224757494       -0.3363033503        0.0000000000
Li         0.0404061018        0.0000000000        0.3581851889
Li         0.0404061018        0.0000000000       -0.3581851889
