8

Li         0.0000000000       -0.1397005169        0.4356050275
Li         0.4356050275        0.1397005168        0.0000000000
Li         0.0000000000        0.5288544875        0.3356736220
Li        -0.4356050275        0.1397005168        0.0000000000
Li         0.0000000000        0.5288544876       -0.3356736220
Li        -0.3356736220       -0.5288544876        0.0000000000
Li         0.0000000000       -0.1397005168       -0.4356050275
Li         0.3356736220       -0.5288544875        0.0000000000
