9

Li         0.0387969086       -0.0000000037        0.0627748769
Li        -0.5056376657       -0.3383901970        0.2752753869
Li        -0.5056376717        0.3383901818        0.2752753838
Li        -0.1732792315       -0.5463834763       -0.2803723816
Li        -0.5826468195       -0.0000000109       -0.3010128711
Li        -0.1732792413        0.5463834620       -0.2803723865
Li         0.4723425518        0.3383901878       -0.3291481370
Li         0.4723425578       -0.3383901910       -0.3291481339
Li        -0.0086650685       -0.0000000074       -0.6557522231
