109

Li         -1.4152111868       -1.2374006065        0.6059081478
Li         -0.1212811432        0.3593423154       -4.9273300281
Li          6.8930394989       -5.3805992726        1.3524366056
Li          3.7447536492        0.1261839345        8.9913487175
Li         -1.0713933414        8.5129695900        1.3821116814
Li          1.4018711046        8.6974123333        4.2824398575
Li          6.4421600387        3.3782667051       -2.8285722992
Li         -6.9872516545       -3.3868946642        2.0273388157
Li          1.0300997826        5.4459061772        6.3986829765
Li         -0.1178724380        2.1662594221        4.8119680723
Li         -4.5699545835       -6.4050469376        1.2905681876
Li          3.8621928646        6.2505609332       -2.6146511996
Li         -2.4694555124        4.0230675222        7.0982253474
Li          4.0175404073        3.2241371669        6.6532193487
Li         -0.7697259095        2.2376695530        1.3776114537
Li         -4.1134035250       -1.3572496487       -7.0106589077
Li          3.3581400689       -1.0580477883       -3.3903590362
Li         -2.4989437883       -3.6470496820        6.4479020174
Li          0.8611938604        0.6575965174       -1.5816555411
Li          3.2306963055       -3.0406158305        3.2290322849
Li          3.3246683874       -5.7959677987        0.8603941462
Li          4.1710748488        6.1944972254        4.1449949571
Li          0.5255643587       -6.2061308169       -1.6042521283
Li          2.0466463145        2.5319408171       -7.2450112048
Li          7.8539714623        1.8650063484        0.4277453452
Li          5.9207388950       -6.4772621556       -5.1016395872
Li         -2.0553083844       -6.7840510694        4.2827926238
Li          4.6899735245       -6.0388964558        4.5838906551
Li          6.7023549365        3.2911844348        3.9035622038
Li         -5.1744186195        4.7500248165       -6.5121245469
Li          1.9021647042       -0.0787626747        1.8084762505
Li          6.9442808200       -2.9321085217        4.1718847361
Li         -3.6112712197        8.1507828530       -1.4676936345
Li         -1.3043796185       -8.1936428531        0.7984620589
Li         -6.1598960247        7.4806486362       -4.1124468750
Li         -0.6420831109        3.8741176428       -3.4480892828
Li          9.0638691815        0.2752769699        3.6745639360
Li         -5.5383608882       -5.4509540035        4.8953486457
Li          5.4919412036        0.0452273431        2.6821698806
Li          5.3628691361        4.8143044098        0.6340929828
Li          2.4317217623       -1.2504475622       -6.9857003472
Li         -6.6980086028       -2.0053095062       -4.3453178783
Li         -2.0214996351        7.3169438771        5.0000087102
Li          0.6320088968        2.0678004655        8.2955061955
Li          1.5340651353       -2.8106095503       -0.4668179727
Li          2.6877626792       -8.0882857331       -3.9663723905
Li          2.7630093200        0.0514864514        5.4056060827
Li          1.3822292291        6.0170923407       -5.5399205214
Li         -1.4105169281        3.9973714983       -7.2106870641
Li          1.5683670561       -7.9019158418        3.3112450343
Li          0.1877669445        7.3080439699       -2.0705782443
Li         -5.4609176501        5.9896854641        5.7327337160
Li          4.3211862288        1.3841678533       -0.5606468352
Li         -2.3735470009        6.8971364690       -4.8959016891
Li          5.7416007973       -2.7630031440       -5.5012299110
Li          0.3719903264        5.4394899577        2.8259778957
Li         -3.4071842424        1.7305814757       -5.2229712613
Li         -0.7171941638       -6.5447085959       -5.0108238902
Li         -6.9152052847        1.2982221063       -6.2802369501
Li         -5.9656823977       -4.3499795103       -1.5735799253
Li         -5.6065675868        2.1800797740        5.5982779205
Li         -0.8899470348       -3.2484785763       -7.0777193484
Li         -0.5557397194       -9.6083010080       -2.7133530531
Li          6.9917220602       -0.4272363225       -2.5925836827
Li         -4.8750155097       -1.1395369099       -0.0408073611
Li          2.6817453377        7.5480560871        0.8473618148
Li          0.1823720360       -3.0831007574       -3.7062536953
Li         -4.3095252301        4.5116374328       -2.8716296406
Li         -2.1159162396        5.1955630084       -0.0486236590
Li          3.7331912610       -4.6519238627       -2.7445328823
Li          7.3559861344       -4.2252669705       -2.2755859494
Li         -7.2288018360        4.3409738608        2.8655895708
Li          5.1823963176       -8.7685496773        2.0972609352
Li         -3.8876072611       -4.5969149349       -4.8930417291
Li         -4.9411228244        2.7902496366        0.5967099129
Li         -2.3687758346       -4.2103231490       -0.9815918014
Li          1.7137796881        4.1708988066       -0.4328126053
Li         -3.4302013514        0.4203105866        3.1843582861
Li         -3.1745239528        4.0921474779        3.4968096154
Li          2.8330971326        2.8153001138       -3.7188969878
Li          4.9203835243        4.7997141894       -6.0213635661
Li          1.0677418676       -4.8930468005        5.6318258114
Li         -4.2216858259        1.9689634290       -8.8729927209
Li          3.0655361405        3.0149686295        2.9606152525
Li         -6.0655377529        1.1500512804       -2.6441148556
Li         -2.5470626289        1.4977092893       -1.6213152589
Li         -7.1865060750        0.4321814346        2.4891241132
Li         -3.0965200581       -1.5137612724       -3.3334440946
Li         -4.5838396229        7.1515745164        2.1365977084
Li         -3.3602157401       -3.3450216418        2.8097938158
Li          0.6146769107       -1.7630381978        7.8146413744
Li          5.3387627024        1.0261775976       -5.7682628437
Li          5.6106630802       -7.6266490102       -1.4981469039
Li          8.4782276173       -1.9281900786        0.6903724982
Li         -2.5396901241        0.1860283552        6.8444036454
Li          2.2904102639       -9.2159215045       -0.2715085899
Li         -3.4794343475       -7.3274571399       -2.3022800268
Li         -0.3641979154       -1.6115539957        4.2115661858
Li         -6.7807704375        5.9350092653       -0.6291327469
Li         -5.6152698355       -1.6666400839        5.2996192928
Li         -0.8935163414        0.3232142299       -8.4032783965
Li          4.2057839330       -3.0067789707        6.8683251636
Li          4.9972177320       -2.3413294182       -0.0198471288
Li         -0.0868205536       -4.7588911619        2.0272319022
Li          6.3849141325        0.2121097161        6.3137249406
Li          2.5139265077       -4.8983908308       -6.1470111105
Li         -8.3728185633       -1.2636515543       -0.8979767055
Li         -8.5541074431        2.5777557093       -0.3302384447
Li         -7.9043436091        4.1138140308       -3.8388443894
