115

Li          8.0264128356        1.3296835384       -6.2393750257
Li          2.5843947819       -4.6302027879        7.1639051746
Li         -6.2919570371        3.3043213695        5.7650746204
Li          5.7101231417        4.2023147288       -5.3068275231
Li          7.2377868666        0.6606891374        3.9107774429
Li          2.2866010739       -3.7071637596       -3.5017248057
Li         -0.5876200143        5.9659696769        6.0368638630
Li         -5.0864631007        2.8578376111       -6.2411688116
Li          4.6930820727        1.6929007779       -0.6598637146
Li         -3.5674405604       -3.5462705460        0.6656105936
Li         -6.7890676173       -4.5096653398       -4.8601605542
Li          5.8424329965       -4.5166358090       -4.1391096305
Li          5.0193877593       -1.9874465464        5.6748984130
Li          2.8195969425        8.0034809840       -0.6131868149
Li         -2.8641068445       -4.1667137470        4.2516720767
Li         -3.3196288810        0.8140463106       -3.6647385136
Li          2.4210294758       -1.0062080049       -6.0636193303
Li         -5.6555592146        2.4048213088        2.1678930310
Li         -8.4941807378        0.8200263479        0.4098593055
Li         -0.8628609009       -1.9289345577       -4.6130668120
Li         -4.3411252967       -0.9026897316        3.2485889906
Li         -0.3858577436       -5.3052918142        1.7142610671
Li          4.8753331058        6.2261739581        2.1372103318
Li         -4.0980316431        3.4255905540       -1.0500977688
Li         -4.9917340051       -0.1858708848       -0.4012002446
Li          4.1841682942        2.6236497011        2.9476587679
Li         -2.3852828156        4.3604433460       -4.2148836984
Li         -0.9791358613        8.7304718453       -0.0481614854
Li         -0.1019009653       -3.5310371787        9.6251007982
Li          5.7000493437       -7.1496223324       -1.5088802077
Li          1.4994378496       -7.1137422848        4.3373534054
Li          4.5642360523        1.5172000878       -7.8593944793
Li          2.3141301125       -0.8758760342        8.2172348010
Li         -0.2659677684        6.9078563296       -5.9961786517
Li         -6.1372302418        6.0294816960        3.0552582878
Li         -2.1251259537        1.5538850529        1.5128824491
Li         -1.6723308757        0.8391131682        5.1509766701
Li         -7.1818431186       -2.6574219317        1.5087751521
Li         -7.7847351729        0.0950601554        4.1849096693
Li          1.1546065352        7.1172762916        2.7722372219
Li          0.2138888718        6.0541455535       -2.3635495297
Li          2.6722006254        3.4371377672       -3.3284832507
Li         -1.4274327254        5.1652142036        0.8512119939
Li          3.2433501738        6.9509572846       -4.3540474020
Li          0.2717954306       -8.8756309519        1.0613508297
Li         -4.7485979829       -6.5631921706        6.3069696000
Li         -6.3530133655       -3.2759423874        5.2547637891
Li          0.6438318132        9.5585128490       -3.3899675321
Li         -0.0795124463       -2.7284906574       -8.1736846809
Li          1.8411379333       -0.1212668737       -2.5305240904
Li         -4.8827110112        0.0024264362        6.8029848322
Li          1.9861358756        0.0741501032        4.6234313559
Li          4.7127208219       -4.5637946670        1.0163055249
Li         -6.9253881031        1.8586799675       -2.9788066012
Li          4.0087033605       -8.1610452345        1.7922128448
Li          1.6928954070       -2.7257997880        0.0322128966
Li         -3.4758085294       -3.6529373018       -6.5710348268
Li         -1.0032186394       -6.0714996466        6.9076201073
Li          0.8976663916        2.6032079560        7.2624930209
Li          5.4342799077        5.3160968815       -1.5918634003
Li         -1.6318559744        3.7744749701       -7.8240016098
Li          7.5146672231       -3.0637073958        2.9115211312
Li         -0.2728469834       -2.4666136996        6.1103064701
Li          0.8342190370        1.0220142127       -8.7729521023
Li         -1.4163980226       -1.0262836527       -1.0401482899
Li         -4.4861166851        7.0017435834       -0.1532387505
Li         -0.5192725349        2.5141838315       -1.6213490980
Li          4.6220307654        1.7621874281        6.5791798624
Li          5.1460144307       -5.7051763109        4.5509141072
Li          0.0023979285        1.6947324807       -5.2289032839
Li         -7.7054588129       -1.8695456356       -2.2525324092
Li          5.0199078223        0.6984472651       -4.2198534845
Li          7.8237937438       -0.3104151477        0.2013853182
Li         -5.5921970438       -6.0250698946        2.5857251087
Li         -2.6573694249        7.7268902587        3.2273381166
Li         -1.0074913428       -4.6230267286       -1.9326476660
Li          7.9128073268       -4.0506371087       -0.8491883726
Li          2.1462021169        4.2057083749       -6.9157302134
Li         -5.9918539642       -0.8448119636       -5.5970678906
Li          7.3954778005        3.4207050522        1.1660918826
Li          2.1327027364       -6.3171660120       -0.8428072590
Li         -9.0306623787        3.5254085299        3.1022014081
Li          4.9624355519       -1.9480743743       -1.6138556013
Li          2.2335578418        4.4278867295        0.2891079716
Li          7.5641585500       -6.7534940400        1.8063636814
Li          2.2732895252       -3.5561810296        3.6346987768
Li         -0.2614544786       -5.5764532670       -5.5541962320
Li         -5.8549247655        5.5554552660       -3.5193804536
Li         -7.5333611746        4.5517520981       -0.2434847681
Li         -6.2491229520       -5.3113763383       -1.1582042489
Li         -1.4820234057       -0.0985794808        8.7304783259
Li          1.4713150020        0.8465256524        1.0132093129
Li          4.5380442761       -1.0009168673        2.0184391244
Li          0.5624905810        3.4285905885        3.5506210430
Li         -3.4912449707       -3.2999676212        7.8629296173
Li         -3.6381835963       -6.4078225191       -3.8273520355
Li          6.8329019056        4.3493496753        4.8335002380
Li         -4.3789369423        6.5549032443        6.4132437968
Li          3.3734229831       -1.7062334640       -9.5452244746
Li         -3.0655316633       -7.2532886577       -0.0813239713
Li          3.0228635788       -7.2304947953       -4.3080605373
Li         -3.0558658914        4.0988360724        4.0182088911
Li         -2.2866748024       -7.8088537509        3.6825505977
Li         -0.4149109464       -8.1937467380       -2.7230674965
Li          3.1616462793        5.2013916474        5.4819062414
Li          8.0679571646       -1.3510392039       -3.5386651215
Li         -4.1340148923       -2.7901095553       -2.9729639894
Li         -0.7552037180       -1.6738764458        2.5368986038
Li         -2.6469671149        0.0544289050       -7.3421908659
Li          6.0090220029       -1.8781883745       -6.7785553428
Li          3.1880420419       -4.5349789750       -7.0027557499
Li         -2.8491294260        7.9957626251       -3.3623073630
Li         -2.9103955865        3.2710250334        7.6565543466
Li          7.8290556584        2.4220421237       -2.5465473856
Li         -4.0075010577        6.5292533895       -6.7017774494
