135

Li         -0.3858370445        5.9898299655        1.7093888420
Li          2.1422188184       -4.8817972329       -7.9592947305
Li         -1.7242877420       -5.1502550825       -7.8913313180
Li          6.5243245557        7.0092065324       -0.2749836090
Li         -4.4703377710        8.4433185800       -0.7055910467
Li         -4.2004683762        5.6786278979        1.7633227163
Li         -0.2233971488        1.6982563877       -6.0012479065
Li          1.7231696777        4.1303055355        4.3497369419
Li          0.0149465436       -1.9882276575       -7.0033416440
Li          6.1019091589        0.4767533755       -7.3695877904
Li         -5.2980533647        3.1700404251       -0.9112733694
Li         -6.5243246824       -7.0092065149        0.2749859605
Li         -0.4582995945        5.3585768356       -4.9066971047
Li         -3.1739844510       -0.6931459818       -5.3286327103
Li          9.4295018826        0.1264784518        1.6852019303
Li          2.5895607874       -8.2824637842        4.0578770615
Li          7.2969423663       -4.9851033035       -3.6979434415
Li          0.0074044083       -0.9849856900       -3.4695184810
Li         -2.5962668436       -6.1513836193        6.8695916763
Li          1.7242867809        5.1502546250        7.8913320650
Li          0.2270460548       -2.6546871135        2.4308219285
Li         -2.1422196318        4.8817976126        7.9592936322
Li         -2.8743431677       -2.4861098736        8.0627382480
Li         -0.0149474733        1.9882274098        7.0033417532
Li         -6.6630840202       -5.9543703516       -3.4525639026
Li          4.9122165299        2.8197889975        2.6206616559
Li         -9.4295016020       -0.1264788799       -1.6852016616
Li          3.1739839153        0.6931451550        5.3286324178
Li         -5.2670046989        3.1824035370        6.4483564752
Li         -7.2969426403        4.9851041070        3.6979416545
Li          3.4124444816       -3.0087732709        4.2721722829
Li         -3.0737719471        1.2615077585        8.9850961578
Li         -1.3384975124       -9.1402862661       -2.5367284048
Li         -2.4988840879        8.8738511738        2.6041783609
Li          2.4988834090       -8.8738508364       -2.6041796501
Li          4.2458214088       -6.7365567770       -5.3257128717
Li          0.6286400771       -8.8572180921        0.7776939956
Li          8.1088301347        3.6292355967        0.7251632834
Li         -5.8622540152       -4.1972105918        6.3078378424
Li          4.7741494275        3.8693695374       -1.0883126282
Li          2.9922744709        0.7284372452       -1.8770940859
Li          2.8125196842        3.4409824816       -4.3815896069
Li          6.6028977748       -3.3317368097        6.0887344651
Li         -2.3474667138        5.5614425876       -1.5838879078
Li          3.6598715489       -5.7170107660        6.7596255619
Li         -6.3632432330       -0.3887225512       -7.1504859014
Li         -1.4997721963       -5.8285621873        1.6515112448
Li         -6.0400082621       -1.4703743870        3.7889793631
Li         -2.1240695941        3.8631861598        4.4173594975
Li         -2.9922743092       -0.7284366283        1.8770944435
Li          6.3632427701        0.3887211873        7.1504856229
Li         -6.6028966475        3.3317353909       -6.0887352321
Li         -5.1599864081        2.1204609402        2.7977017291
Li         -3.0509800925        0.2609369041        5.4380503170
Li         -2.5895598748        8.2824639378       -4.0578785042
Li         -3.4580661830       -7.2714497566       -5.1902985590
Li          2.8743437132        2.4861107705       -8.0627376680
Li          5.2980534970       -3.1700406342        0.9112719466
Li         -9.2917880391       -1.1733693011        2.0142696431
Li         -8.1088301490       -3.6292358050       -0.7251617415
Li         -0.0074050764        0.9849855760        3.4695186382
Li         -4.2458217787        6.7365569474        5.3257109007
Li          7.8337082500        4.6277442638       -2.9980671347
Li          1.4997725395        5.8285620176       -1.6515105552
Li          3.4704654721       -2.0455809729        7.9512139292
Li          3.1823672233        1.6958801682        8.8751300752
Li         -3.2335492607       -8.9782112179        0.8410031313
Li          7.4357007829       -6.0399398377        0.0296059882
Li          0.2170039353       -0.7074974691        9.5511143087
Li          1.2769462988        8.5509212094       -4.1258395207
Li          9.2917883141        1.1733698433       -2.0142690144
Li          3.2335493642        8.9782111150       -0.8410017938
Li          0.4548537891       -4.3999306395        8.4973606093
Li          2.0809495733       -2.8132429895       -0.8735671958
Li          1.7016002961        3.0758713491        0.8070805155
Li         -4.6306872720       -6.6959342303        3.6292597288
Li          3.4347381745        6.2087519203        1.6291192707
Li          2.1240693035       -3.8631858712       -4.4173606842
Li          0.4009413177       -7.1262664892       -5.3390908789
Li         -3.1823677106       -1.6958810991       -8.8751304295
Li          0.2233975363       -1.6982565387        6.0012478281
Li          8.2214777748       -1.3920835015       -4.7160174431
Li          4.2004678687       -5.6786275527       -1.7633249427
Li          5.6354281453       -5.9831419883        3.4488088246
Li          2.3474671641       -5.5614421408        1.5838868064
Li          3.0509796499       -0.2609362432       -5.4380496081
Li         -0.2270457445        2.6546870799       -2.4308220293
Li         -6.1019095242       -0.4767522817        7.3695885488
Li         -3.6598705246        5.7170097174       -6.7596263472
Li         -3.4704648633        2.0455798855       -7.9512145315
Li         -5.6354272710        5.9831415725       -3.4488104208
Li         -1.7231703598       -4.1303057560       -4.3497360553
Li          4.4703377932       -8.4433180246        0.7055889752
Li          0.3858365136       -5.9898296363       -1.7093890222
Li         -4.7741494784       -3.8693692542        1.0883142336
Li         -8.2214776747        1.3920846262        4.7160171243
Li         -7.4357009700        6.0399400420       -0.0296084391
Li          6.2249636546        0.4322092360       -0.1094171386
Li         -6.2249634283       -0.4322090926        0.1094175570
Li         -2.8125190828       -3.4409817432        4.3815901298
Li         -1.7016007389       -3.0758711747       -0.8070795196
Li          6.6630831923        5.9543694717        3.4525656997
Li          0.0000000523       -0.0000000602       -0.0000000583
Li          4.9991116340        3.8951951831        6.2679081518
Li          3.0737715150       -1.2615069719       -8.9850952649
Li         -4.9991124554       -3.8951960110       -6.2679073132
Li         -8.1101809950       -2.5260168512       -4.4289524389
Li         -0.4548527099        4.3999304888       -8.4973608553
Li         -3.4124437384        3.0087722723       -4.2721727490
Li         -0.4009418428        7.1262668153        5.3390906578
Li          6.3140157280       -0.6126163173        3.5718295947
Li          5.1599865184       -2.1204601846       -2.7977021872
Li         -8.4979494680        3.4938109812       -2.7110046373
Li          1.3384968994        9.1402866428        2.5367290687
Li         -1.2769454242       -8.5509214249        4.1258402532
Li         -3.4347389179       -6.2087519189       -1.6291177146
Li          4.6306880404        6.6959346011       -3.6292582085
Li         -7.8337080102       -4.6277436460        2.9980691109
Li          8.1101803210        2.5260156780        4.4289531396
Li          5.8622549506        4.1972117023       -6.3078367078
Li         -0.6286399247        8.8572183726       -0.7776943187
Li          8.4979499230       -3.4938117906        2.7110030280
Li         -4.9122171812       -2.8197897327       -2.6206608154
Li          8.5020952239       -2.4759129699       -1.0171361095
Li         -3.1280199879        0.3034947558       -1.7695164594
Li         -8.5020949002        2.4759133748        1.0171351205
Li         -0.2170037464        0.7074972118       -9.5511143020
Li         -6.3140156430        0.6126149541       -3.5718299222
Li          6.0400084604        1.4703752948       -3.7889785782
Li         -2.0809498675        2.8132431846        0.8735660467
Li          3.1280201112       -0.3034955078        1.7695163939
Li          0.4583003347       -5.3585770236        4.9066968328
Li          3.4580654088        7.2714496394        5.1902999641
Li          5.2670043234       -3.1824027509       -6.4483569649
Li          2.5962678405        6.1513843559       -6.8695911151
