136

Li         -0.3730486448        5.9297609627        1.7664233455
Li          2.8094292438       -4.7503260182       -7.9234708565
Li         -1.0502135319       -4.8935720652       -8.2577165197
Li          6.7322008328        6.7766811514        0.5267708144
Li         -4.1129821437        8.5820998475       -0.9769142948
Li         -4.1810899197        5.7437803938        1.4208772777
Li          0.4524402952        1.8483057901       -6.0165927494
Li          1.4014950072        3.9372523492        4.5478668751
Li          0.6824374327       -1.8157746535       -7.1021449955
Li          6.8457751368        0.4576618180       -6.7702827924
Li         -5.0722718690        3.3460577405       -1.4265417422
Li         -6.7169127718       -6.8163610498       -0.6826590833
Li          0.2156539593        5.4832957035       -4.8401758129
Li         -2.6219436742       -0.4627254210       -5.7211554389
Li          9.2141395594       -0.2489222679        2.5614632005
Li          1.9185042422       -8.4911805646        3.9676960688
Li          7.4938027974       -5.1388541863       -3.1644266883
Li          0.3420626711       -0.9101327481       -3.5598552694
Li         -3.4627355227       -6.2678899413        6.3006682868
Li          1.0682400711        4.8662976507        8.1217505484
Li         -0.0955432788       -2.7464668508        2.2803077004
Li         -2.8017893549        4.7226660862        7.7866054248
Li         -3.7529702095       -2.6303391540        7.5706186922
Li         -0.6641909994        1.7672263040        6.9122563591
Li         -6.4405820556       -5.6560126638       -4.3711466636
Li          4.7056312760        2.5644480022        3.1148230147
Li         -9.1988127981        0.2091332354       -2.7173198918
Li          2.6437013509        0.4209491905        5.5662271926
Li         -5.7972063721        3.1562638423        5.8947543795
Li         -7.4782727481        5.0988594540        3.0087320218
Li          2.8712348143       -3.2538063379        4.4260857127
Li         -3.9445311540        1.0981702440        8.6034599194
Li         -1.3355013828       -9.0388196396       -3.0157374271
Li         -2.4797699517        8.8562612908        2.5283939626
Li          2.4947569581       -8.8966640940       -2.6840364532
Li          4.5751144809       -6.7443154595       -5.1471696389
Li          0.2883816762       -8.9109838956        0.4889001248
Li          8.1032660053        3.3201148199        1.5796002374
Li         -6.5939841194       -4.1930137624        5.4693154760
Li          4.9817297386        3.7192003305       -0.5558637851
Li          3.1980227991        0.6611057789       -1.6182440812
Li          3.3566852815        3.4455291422       -4.0434936411
Li          5.8474910311       -3.7312631092        6.5467488185
Li         -1.9979617542        5.6570334179       -1.7219718773
Li          2.7812800219       -6.0361506524        6.8414006799
Li         -5.5966789579       -0.0041252811       -7.8478011086
Li         -1.8273385932       -5.8393491340        1.2336534889
Li         -6.4317352992       -1.3947127168        3.0296829436
Li         -2.4472744161        3.7944098021        4.2145629174
Li         -3.1822215620       -0.7011245810        1.4607883766
Li          5.6134422812       -0.0360204141        7.6931206150
Li         -5.8328814190        3.6918780870       -6.7026879572
Li         -5.3462419387        2.1913844386        2.2443293012
Li         -3.5837386170        0.1898251111        5.0269299820
Li         -1.9033655883        8.4510265596       -4.1234775702
Li         -3.1147450760       -7.0297154807       -5.8131127413
Li          3.7677020935        2.5900403323       -7.7266820730
Li          5.0871808746       -3.3859548804        1.2708131116
Li         -9.4734190354       -0.9424892238        0.9431176772
Li         -8.0886924928       -3.3600382388       -1.7352299320
Li         -0.3257870123        0.8668279316        3.3904755018
Li         -4.5613943985        6.7061863016        4.9916811116
Li          8.2424220126        4.4286525510       -2.1201972090
Li          1.8422103263        5.7995569867       -1.3894124952
Li          2.5807558834       -2.3952704200        8.1191201640
Li          2.3173081465        1.3305709689        9.1457361568
Li         -3.5618594924       -8.9070110152        0.1550139270
Li          7.2174165985       -6.2992048028        0.5240559304
Li         -0.7807549012       -0.9982599279        9.4434490119
Li          1.9559937814        8.5942622250       -3.7892565733
Li          9.4880463126        0.9026742988       -1.0990349101
Li          3.5768917315        8.8675006231       -0.3109701213
Li         -0.5443395933       -4.6648587174        8.2848614415
Li          2.0828822600       -2.8758455871       -0.8211196710
Li          1.7083938427        2.9751776599        0.9908178024
Li         -5.1689815646       -6.6567060772        2.8550154199
Li          3.4409848250        6.0266648476        2.0809500301
Li          2.4580276923       -3.8288941134       -4.3724130320
Li          0.7418839327       -7.0071108481       -5.5637674429
Li         -2.2959292152       -1.3673348741       -9.2789536022
Li         -0.4373425874       -1.8950883142        5.8623045837
Li          8.6248009856       -1.5516061305       -3.9728864918
Li          4.1958426526       -5.7833922735       -1.5772186311
Li          5.0776438576       -6.2764146109        3.7423744672
Li          2.0130192855       -5.6968187419        1.5662289627
Li          3.5920352958       -0.2321009087       -5.1830240632
Li          0.1106630223        2.7068995690       -2.4379442331
Li         -6.8327345012       -0.4979455270        6.6152798779
Li         -2.7666563130        5.9967762637       -6.9973411607
Li         -2.5654710250        2.3549920875       -8.2751357000
Li         -5.0629307438        6.2369335716       -3.8981039516
Li         -1.3824225125       -3.9714278834       -4.7049965947
Li          4.1278951153       -8.6216148066        0.8209477847
Li          0.3879809539       -5.9704705974       -1.9214052275
Li         -4.9667060951       -3.7590931288        0.4001450666
Li         -8.6092657958        1.5116279857        3.8171881356
Li         -7.2027539582        6.2595015189       -0.6799983747
Li          6.2211612445        0.2107519291        0.4602216603
Li         -6.2061974663       -0.2504750613       -0.6159894894
Li         -3.3411645524       -3.4843722482        3.8880912325
Li         -1.6936722697       -3.0160079737       -1.1481698543
Li          6.4549969609        5.6159765163        4.2153553440
Li          0.0080547010       -0.0214313370       -0.0838254903
Li          4.4509775633        3.5366131094        6.7822486860
Li          3.9491039975       -1.1355578603       -8.7381329493
Li         -4.4355294908       -3.5763735868       -6.9383810453
Li         -7.6768137324       -2.1566215719       -5.3846089370
Li          0.5592609703        4.6233284168       -8.4393648272
Li         -2.8569457888        3.2149175079       -4.5815949110
Li         -0.7268878297        6.9676499107        5.4075150088
Li          5.9010410801       -0.9369961545        4.0977031598
Li          5.3621604198       -2.2313528938       -2.3994058961
Li         -8.0592215775        3.8236360119       -3.5319220069
Li          1.3504707138        8.9984162346        2.8600933834
Li         -1.9411680937       -8.6344277926        3.6334480093
Li         -3.4257234802       -6.0662577563       -2.2372474310
Li          5.1841669841        6.6172426853       -3.0107038528
Li         -8.2276938496       -4.4687533555        1.9643627696
Li          7.6912230560        2.1166015860        5.2288129761
Li          6.6093002501        4.1536551132       -5.6251932517
Li         -0.2734219589        8.8708045124       -0.6444272234
Li          8.0744560333       -3.8637181804        3.3761313566
Li         -4.6917059925       -2.6044904339       -3.2700722819
Li          8.4914602428       -2.7446851821       -0.2993860783
Li         -2.9125708020        0.4343182305       -2.1474223204
Li         -8.4761220617        2.7047900966        0.1438226569
Li          0.7938189169        0.9552456435       -9.5758673738
Li         -5.8856153260        0.8969382808       -4.2538657933
Li          6.4463376694        1.3546243608       -3.1859168635
Li         -2.0673270853        2.8350461544        0.6638398988
Li          2.9270234387       -0.4743870883        1.9898498451
Li         -0.2006357482       -5.5236597914        4.6840524292
Li          3.1307656023        6.9916717616        5.6578233335
Li          5.8117599730       -3.1960574681       -6.0509642406
Li          3.4780371771        6.2285407270       -6.4565498461
Li         -1.0060833741        2.6769064715       10.4703408609
