139

Li          3.5099680307       -7.6554264922        7.0179771581
Li          9.2502103938       -0.5785297482       -2.6039779303
Li         -7.9507716806       -2.9157732953       -6.8499458399
Li          0.0531060382       -0.0040422143        0.0146940519
Li         -0.8737525044        0.4397421275        3.4736231594
Li          1.1883496182       -2.5217432773        2.3186556940
Li         -2.4554366370       -2.2514168321        1.3162169420
Li         -3.2013273153        1.4021961177        0.6442093693
Li         -1.1941946052        6.0120385256       -1.0888915179
Li          2.6902911382        0.9575519394        2.2794352726
Li          0.1310633430       -3.3961416345       -1.2132258465
Li         -2.5820331018       -0.9619561305       -2.2444155946
Li         -1.0921481826        2.5214653151       -2.2978036828
Li          5.2843518030        3.2579948652        0.9986670740
Li          3.3116354942       -1.4144291334       -0.6187538512
Li          0.9733416341       -0.4473224650       -3.4460677349
Li         -1.8144194219        0.8909855852        6.9967207645
Li          0.2680462973       -2.1168131879        5.8871374865
Li         -3.4363443892       -1.8377477632        4.8549569372
Li         -4.2041517080        1.8798879391        4.1814409706
Li         -0.9730104489        3.8960555861        4.7783128544
Li          3.8997374990       -1.5895491097        4.6692199995
Li          1.7946367789        1.4227020908        5.8342012951
Li          2.3429198799       -5.0749527359        4.6558219600
Li         -1.3434934612       -4.8586776445        3.6884821225
Li         -5.0069042260       -4.5400011647        2.6422646863
Li         -5.8157277660       -0.8617695749        1.9813466068
Li         -6.5000403694        2.8285840332        1.2836322639
Li         -3.3456232794        4.8856052916        1.9055155856
Li          2.6515109580        4.4226275739        3.5626609986
Li         -0.1143074692        6.8430953107        2.4897905681
Li          5.3778183377        1.9355925630        4.5848867134
Li          7.8572525227       -5.4552841466        1.0886929940
Li          2.4628313472       -8.6321701049        3.4734836245
Li         -2.4148475104       -5.7373119891        0.0903002705
Li         -8.6807347086       -0.5204091733       -3.9618480671
Li         -5.9581959518        0.4535483101       -1.6485817307
Li         -4.4269663406        4.0002935354       -1.7002018285
Li         -4.5963641215        7.5886720276       -0.4557154209
Li          2.5110726463        5.7360410268       -0.0590329984
Li          5.0806499337        4.5098581949       -2.6017826198
Li          6.0486869624       -0.4604368776        1.6736196846
Li          1.1581153001       -7.3630036575       -6.0191417132
Li          0.2135137210       -6.8506465789       -2.4623411345
Li         -2.5494683612       -4.4368601784       -3.5366369297
Li         -5.2524822694       -1.9339614637       -4.5354544780
Li         -3.7964939522        1.5934686654       -4.6409663619
Li         -4.9740612236        4.1562569929       -7.0069020162
Li          1.4302099942        4.8520767168       -3.6644880072
Li          2.5476994188        2.2373494138       -1.2849221240
Li          5.9171546925        0.8422701041       -1.9529696261
Li          1.0700827554       -3.9034444883       -4.7514539289
Li          2.0122920969       -4.3725275756       -8.2835262275
Li         -0.1726954218        2.1124743760       -5.8535477682
Li          3.9914399253        7.1692527389       -5.0118429122
Li          4.3043209625       -1.8869653989       -4.1466722661
Li         -4.3916341268       -2.4185747464       -8.1532563844
Li         -4.3900813426       -1.3973812917        8.3873696812
Li         -5.1637147759        2.3395770832        7.7055928144
Li         -1.9140691422        4.3650509595        8.3107034966
Li          0.8667165089        1.8798668762        9.3715217008
Li          1.4333876264       -4.7022685530        8.2752079173
Li          3.0111809418       -1.1647670498        8.3407913707
Li         -2.3208360491       -4.4889744280        7.3430539210
Li         -5.9938596260       -4.1256135519        6.1998035626
Li         -6.8818092237       -0.4126912997        5.6029069836
Li         -7.5517265960        3.3277241548        4.8486308551
Li         -4.3703189500        5.4319856727        5.5252109480
Li         -1.0598938992        7.3555271599        6.0463185505
Li          1.7436100522        4.9657933662        7.2158394053
Li          4.4800470919        2.4046315717        8.1596129308
Li          6.5925943346       -0.6274527403        6.9875462841
Li          5.0846060970       -4.1721313318        7.0506218301
Li         -0.1868211047       -7.4588669462        6.0645491172
Li         -3.8852172580       -7.1607484481        5.0276567166
Li         -8.3842319646       -3.1394007201        3.3107761709
Li         -9.3121616527        1.8900592914       -1.0166321525
Li         -0.0314760685        3.3885613645        1.2407807323
Li         -3.4481274194        8.3458658609        3.1576386133
Li          2.5818432223        7.8845418317        4.8247887713
Li          5.3410047090        5.4188535845        5.8772475442
Li          7.3477092009       -3.0849681693        4.1001272844
Li          5.7208325795       -6.6009258467        4.0830153945
Li          4.6960006097       -7.5965652239        0.4821419392
Li         -1.2795760640       -8.4639848403        2.4862136522
Li         -7.7497614963       -5.5614884695        0.3513629100
Li         -5.1973370983       -6.8431585558       -2.2541179619
Li         -5.1852552275       -3.2685946213       -0.9594178075
Li         -7.7752634329        5.4597674732       -1.0646504956
Li         -9.1715688240        0.5712928023        2.6368968226
Li         -1.2826181102        9.4818762071        0.1496096360
Li         -2.3582920036        8.6025379911       -3.4379370581
Li          1.3768293579        8.4565819020       -2.4593042557
Li          5.2964342577        6.8359237057        2.2826790771
Li          8.7598181372        1.8588345239        0.3566875655
Li          9.3849930655       -1.8923653529        1.0410619948
Li          4.5325403377       -4.0052736136        1.7175831454
Li          1.2919413823       -6.0255323546        1.1112948248
Li          1.3816141026       -9.4926701334       -0.1227473639
Li         -4.9671940614       -8.0449096357        1.4110375585
Li         -2.3446636901       -9.2057612158       -1.1532476820
Li         -7.9043764550       -4.2662065286       -3.2737716189
Li         -8.6614101442       -1.8675249633       -0.3284767453
Li         -6.5080711108        0.6222683521       -6.9753191028
Li         -2.2554598512        5.0928247222       -4.6516992369
Li         -6.6885263895        6.3497967220        2.5603213534
Li          2.4438479825        9.2014698694        1.1812201516
Li          5.0781683098        8.0581366778       -1.3869531369
Li          7.8663145159        5.5666487098       -0.3235678385
Li          7.9855519789        4.2493017179        3.2948752847
Li          8.7552983768        0.5114936261        3.9782007859
Li          6.7709367917       -6.3408363849       -2.5259777051
Li          3.5467244391       -8.3510595334       -3.1290669881
Li         -5.2548355111       -5.4406471653       -5.8649471945
Li         -2.4829107449       -7.8943845873       -4.7987060881
Li         -7.2486310458        3.0786245388       -4.0736955716
Li         -5.6085321444        6.5783444756       -4.0474885984
Li          0.2837681390        7.4348968184       -6.0241467662
Li          2.4180918581        4.4815712462       -7.3161437772
Li          8.5025411918        3.1378537826       -3.2911739175
Li          6.6313471572       -2.8497518411       -1.2620539556
Li          3.4474449698       -4.8868910242       -1.8751325972
Li          4.4690896895       -5.4387150627       -5.4968390237
Li         -1.6444167417       -4.9741332422       -7.1894368153
Li         -2.9118899091        1.1582047742       -8.3127400207
Li         -1.6909383803       -1.4311430737       -5.8125618491
Li         -1.3316238554        4.6832422171       -8.2267027077
Li          6.9812559584        0.4041252103       -5.5759693423
Li          3.5349695841        1.8273213906       -4.8348747029
Li          1.9136287957       -0.8985372658       -6.9692703237
Li          7.6318963831       -3.3266142614       -4.8083424238
Li          5.2618541154       -2.3463842274       -7.6757990103
Li         -0.7673206886       -1.8880961318       -9.3466595384
Li          0.7628035284        1.6734961575       -9.3910067613
Li          4.4900676973        1.3900407037       -8.3631205679
Li          6.1076138122        4.1282344437       -6.1886762975
Li          7.6407906917        6.8066113654       -3.9326570673
Li         -0.6646020135       -1.6812414824        9.4215948723
Li         -9.8329684848        4.2695020810        1.9293373306
