145

Li          2.6114448382        1.1287905357        5.5393613995
Li         -3.0060025568       -1.5874382689        5.1688549411
Li         -3.0720806625       -0.8126933376        1.5434941867
Li         -9.0830770736        2.8376721641       -0.7925879694
Li         -1.1892324183        1.7609040146        5.8101648232
Li          2.9648840887       -1.8225950639        1.1167151082
Li          6.2046510860       -1.0502154390       -0.4841637293
Li         -0.9596515654       -6.9485140435        1.8412185468
Li         -3.8271298517        8.0002525188        0.0756735492
Li          0.5644067905        3.4176036303       -0.9894443091
Li          5.6767804984        2.6945800973        0.3197452982
Li          2.7778167693       -5.0385555022       -4.5244149259
Li         -0.0694986245        0.7237723959       -3.5820061374
Li         -5.9190367078        4.2627149003        6.1325317769
Li          3.2938388160       -3.3855943556        8.3453907437
Li          2.7582975319        0.3778701133        9.1624608176
Li          0.1866684558       -0.7659441846        3.4702561289
Li          3.1470593641       -2.6120168783        4.7222783860
Li          0.3160130134       -1.5198851577        7.0402353655
Li         -0.4468411633       -3.4622206164        0.8893427954
Li         -3.6526273613       -4.3383478320        2.5341961535
Li         -2.8816675379       -5.4403194017       -1.0873114994
Li         -2.3169817049       -1.8928512129       -2.0065596011
Li         -4.4625103291        0.9716809198        7.5686252971
Li         -4.2755346174        4.3508412021        1.0310455445
Li          3.5313490913        6.3625912309        6.2332297101
Li          4.8421683629        3.7443521041        3.8892287369
Li          5.4354108917        0.0492602490        3.1291468035
Li          9.1775091419       -2.8749365908        0.6914988453
Li          7.7203104622       -3.6519902653       -2.8035024753
Li         -0.3289285586       -4.2903740368        4.5014261727
Li         -8.0156890312       -4.6607469170       -2.4150160177
Li         -8.7860350522       -3.5603818690        1.2020150939
Li         -5.5600564744       -2.7376865840       -0.4194475076
Li          2.9980669961        5.3961457460        0.9882031158
Li          5.4370542489        7.3361563325        2.9878514432
Li          7.8509513081       -0.9632958954       -5.5920939223
Li          5.4526388847       -7.2073435499        3.2851272271
Li          2.3008846428       -8.6505992537       -3.6318911476
Li         -0.9877359135       -4.4741108008       -4.3122553070
Li         -7.7766621155       -2.0063237510       -5.2449442910
Li         -2.8377265871        1.7720423028       -1.2130002289
Li         -6.0923046999        1.0024990055        0.3897353655
Li         -2.3820984813        5.3192306046       -2.1931085889
Li          1.0769899097        6.9039834761       -1.9411259762
Li          6.3018388375        6.3137337684       -0.6480700297
Li          9.5688956610        2.3790375221       -4.8902207323
Li          7.3536908403       -6.2362707325        0.0477014736
Li          6.0366169864       -4.3071505481       -6.2325437713
Li         -2.4901083258       -1.1670268482       -5.6369406324
Li         -3.0212882089        2.5642854167       -4.8293681060
Li          0.4430002805        4.2387494667       -4.6015681008
Li          3.1153409708        1.5422454901       -5.2679394459
Li          1.3025208993       -1.7988180867       -5.9078546650
Li          0.4464550631       -2.2812153154       10.6456864848
Li         -0.2005776401       -5.0753933612        8.1179946561
Li         -6.8665283658       -5.1711782984        4.1743605636
Li         -2.8950912550       -2.3551101352        8.7894691178
Li          5.6656948333       -0.7157078569        6.8445317207
Li          2.4345475236        1.8482342661        1.9064569332
Li          8.4035452488       -1.7687664654        4.3267803890
Li         -0.8460781428       -7.8222741015        5.4870234046
Li          1.4096838496       -2.5143012377       -2.2729271050
Li         -6.2159067739       -2.4029468029        6.8257043253
Li          1.1042650383        4.4286965876        4.2133530661
Li          1.2549912937        3.7354804807        7.9453054756
Li          8.7841479877        0.8772180821        1.5343345496
Li         -1.0668792759        1.0143194789        9.4348177992
Li          5.9214857516       -3.6541499345        2.3036729659
Li          4.3918311982       -4.3912793393       -1.1240788688
Li          1.9982680132       -8.8991912019        3.0645450716
Li         -1.4778592576      -10.4700388938        2.8025265485
Li         -4.1911758307       -7.8701711041        3.5072207650
Li         -6.1848495623       -6.3571659929        0.5489820505
Li         -9.4527389149       -2.4236808072        4.7910131420
Li         -4.5142182634        1.7131829067        3.8436533032
Li         -4.0435164827        7.5456206014        6.7004397185
Li         -0.2651086110        6.9953656343        6.5046259126
Li         -1.2916093307        2.4687496426        2.1719909034
Li          7.2740290715        5.6598602208        5.8918947673
Li          7.8909414085        1.9611193772        5.1446256328
Li          2.5023019325       -5.3565159577        2.0937759186
Li          6.1013713205       -4.4462405846        5.9296576050
Li          4.1601793068       -7.5893343412       -6.7994672820
Li          0.4096352533       -9.6171877918       -0.4109261943
Li         -3.4154055685       -8.9790990523       -0.1370186139
Li         -3.5861574346       -5.1868494468        6.2364068078
Li         -6.2469681532       -1.6142512892        3.1594146668
Li         -9.3217447458        0.2033844573        2.0163334584
Li         -5.6789422654        6.9171396287        3.3022233684
Li         -2.1846159906        8.6061619331        3.5322810133
Li         -2.6609364787        4.9948743607        4.4252645766
Li          3.5319405445        8.9348740102        0.0377951288
Li          1.6480046815        8.0789365810        3.3139374535
Li          8.1330705307        4.6172541220        2.3154035250
Li          5.0485615726        3.0416600998        7.5677981981
Li          4.6316774904       -1.7577597686       -3.9436642632
Li          0.9189676033       -6.0741625994       -1.3597360436
Li         -1.5318835646       -8.1239703791       -3.4133310958
Li         -7.1569793586       -5.7042817253       -5.9915571881
Li         -8.6682779036       -0.9220772182       -1.6332264253
Li         -5.3224716273       -0.0999336938       -3.2310452784
Li         -5.7752061826        3.5916933427       -2.3919789769
Li         -7.6034100938        3.6074348623        2.7049618467
Li         -5.9979824016        4.4118389656       -6.0429353554
Li          1.5949076828       10.4256181455       -2.9021876696
Li         -0.2931652283        9.5720154682        0.3109940127
Li          3.7700769032        4.2946320209       -2.6327731703
Li          8.9026536975        3.5165915183       -1.3015035449
Li          6.3632390416        1.5694497135       -3.2587811512
Li          0.0628031293       -0.0238341942       -0.0534741292
Li          0.3817133758       -7.0400850462       -6.6037160373
Li          5.7942122394       -6.9596594485       -3.4004117287
Li         -4.9307912315       -3.0845210208       -7.6650613427
Li         -5.3205187876       -7.3803817200       -3.0870753550
Li         -4.7248294278       -3.7888827688       -3.9891379421
Li         -8.3083505993        1.7284204163       -4.4368416655
Li         -7.2548651481        6.2071017935       -0.1472387493
Li         -8.7419276111        5.4294153442       -3.5824657595
Li         -1.8820232398        8.8576104915       -3.1641673909
Li         -0.8031646712        6.0293576544        1.2597102801
Li          4.3087362154        7.8265275353       -3.6065536034
Li          6.9834824287        5.1271059119       -4.2733280621
Li          3.1908215701        0.7683715489       -1.6441956127
Li          6.3307158188        2.3581491716       -6.9234172000
Li          9.4360203523       -0.2477338717       -2.1148739693
Li          3.9437587600       -8.0437143814       -0.1742956026
Li         -2.6349609935       -0.4204587755       -9.2384711612
Li         -3.4146986181       -6.4079149736       -6.3328844388
Li         -5.3494756629        7.1816837537       -3.3923739943
Li         -1.1385492739       -3.7787857128       -8.0442176027
Li         -2.5570453389        6.1845827348       -5.8883281936
Li          0.9618813910        7.7757901146       -5.5849784035
Li          3.0045549486        2.3052309755       -8.8672800615
Li          1.1807365250       -1.0561029196       -9.5110778039
Li          2.6742206943       -6.2290519233        5.7885583923
Li          4.5785813394       -1.0155405380       -7.6684487664
Li         -3.1694113584        3.3335377057       -8.4260904235
Li         -5.5485190538        0.6712384424       -6.9443032829
Li          0.3159448231        5.0181185878       -8.1968162253
Li         -0.1999389244        1.4827756628       -7.1753130297
Li          2.6889076126       -4.3537758703       -8.2089549323
Li          3.7018398350        5.1421468397       -6.3355862479
Li         -2.5731041644        4.3108083606        8.1115938891
Li         -7.7335401378        0.9185501233        5.4920218043
