158

Li          1.4713356410      -11.5714192714        2.0295332267
Li         -0.4907069771        5.0281647734        4.3956777101
Li          1.2539317698       -2.6603240820        8.9683245807
Li          7.0217495022       -8.6836415787        0.0872069852
Li          6.9732718637       -0.7842440534        5.9840201051
Li         -2.8330577822        3.0373750331       -5.2541937314
Li          3.8585602124        8.1420194712        3.9614205088
Li         -5.2505451924        0.2542633501       -4.0929257906
Li         -8.0565412676        1.9648489837       -5.8091682286
Li         -2.5896253586       -5.9285444518       -6.8724092380
Li         -3.8351921314       -0.4217546949        1.0187362236
Li          3.9322413389        8.5559881910       -2.7196895192
Li         -4.9515186417       -1.9565746283        8.1919388743
Li         -4.9647755403       -7.0012586928       -3.9515163963
Li          5.7789769999       -5.9700415635       -2.2248454053
Li          6.7401960000        5.5435576581        3.8057359247
Li          1.7687843756       -4.6618947931        2.7142450986
Li          1.2568722056       -1.8647563093       -2.0176981743
Li          3.4953286760       -7.1838498756        0.6339566917
Li          0.8882409890        2.8997220079      -10.5953509082
Li          3.7390614921        0.1305099901        7.8937389866
Li          3.9183068882       -3.5028382588       -0.2283600975
Li          0.8928893363        1.8021061334        5.9941697615
Li         -7.0965907967        7.2009086449        2.2542812113
Li          6.1795421271        2.3452947253       -1.9840273396
Li          3.0974886973       -4.3127373992       -4.0343225406
Li         -8.7971493522        5.6317925966       -5.0467220101
Li          2.4631463558        9.6498471879        0.7101885690
Li         -2.0565590971       -4.5277104522        8.0339228629
Li         -9.2855658105       -3.4016982173       -0.3461535291
Li         -4.7339088065        8.3806821841       -0.5807788954
Li          9.0987194073        0.7073730542       -0.2800099306
Li          1.8019271572       -1.1264597684       -5.6042731008
Li          7.7413496094       -4.4748350475        5.2673361266
Li         -9.2257949146        1.0880893270        4.0481654979
Li          1.4291810575        7.0785055055        6.8133405661
Li          3.8126035333      -10.5636780743       -0.7590264939
Li         -5.5667236689        7.5228636379       -4.2548392514
Li          5.1987097526        6.5634607214        7.1656791526
Li        -10.1215571500        0.3261093987        0.3567634057
Li         -3.5066362738       -8.5422676465       -0.7019396257
Li          6.1281002742        2.9126791268        6.6052264113
Li          6.7934080466        5.9581958590       -2.8781554079
Li          9.3861570357       -5.9595644941       -1.0485105104
Li          7.8958071609       -7.9252365721        3.6763166116
Li         -7.2345982381       -1.7301293081       -6.5108626233
Li         -1.9621281357       -9.9823077031        2.5355276185
Li         -1.8870380578        6.5364119278        1.1320551528
Li         -4.2469806218        5.4091671463        3.9093138613
Li          0.0455805589        8.6997574790        3.5894455944
Li          1.2547056643       -5.5173660328        6.3805776323
Li          9.5744111796        3.3291372824       -3.0106100364
Li         -1.5172451459       -3.7637146252        4.4294944211
Li          6.7529718742        3.2064459842       -5.5985601405
Li         -6.6908165964        1.2810690948       -0.6611815566
Li         -1.3735204369       10.1065872842        0.2816794385
Li         10.0914638494       -3.3373066106       -3.7388896097
Li         10.2499334991       -5.1892347644        2.5215865175
Li          0.4069157394        2.0966995527       -7.0255754421
Li          0.2796369364       -9.0757971551       -0.4537255685
Li         -5.6191318700        4.7653329592       -6.9798843974
Li          2.8177172233        1.4028158921       -0.9737130573
Li          4.9993468588       -6.8053626364       -6.0321881765
Li          0.8076220521       -5.4792398717       -1.2472216365
Li          2.1810374595       -1.0794212903        1.7909865125
Li         -7.7222019275        4.5162939982        4.9946379453
Li          4.5213059614       -6.4018044754        4.5449617275
Li          8.1853641048       -0.0696541543       -4.0462004942
Li         -6.3478131737       -5.3872712444       -7.1414706293
Li          6.6842636879       -5.2004631549        1.5045466644
Li          7.7180382371        1.8648793606        3.2197565671
Li          6.1518792119       -9.4077709749       -3.5101153530
Li         -2.3325216735        6.6778227706       -6.2084443704
Li          4.9363022609       -2.7500585183        3.5418857531
Li         -3.4345407573        1.5015248261        9.1479626441
Li         10.9627011717       -2.5961222261       -0.1467471036
Li         -7.8312254393       -2.1643377841        5.6501854312
Li         -7.8528007820       -4.4241972991       -3.7667904387
Li          4.5337951529       -3.5739583271        7.1705813521
Li         -4.8131883733        4.7230329957        7.5530630918
Li         -2.3703760311        3.8490837286       -8.8407264213
Li          4.7029250641       -0.9917536182       -3.0802590775
Li          8.2057993247        4.4409307051        0.3901128330
Li         -0.0067071520        3.9869088976       -0.8207253368
Li         -2.3751227548        7.5228652087        6.3833549366
Li          3.2690358629        4.5282828891        4.7669212357
Li        -10.6214694777       -2.3342590166        3.0600353683
Li         -4.3645925492       -3.9598858804        1.8766066339
Li          3.6622321860       -3.5979365239       -7.6598961226
Li          5.6469711288       -0.1886586213        0.8122699593
Li          6.6040233631       -3.4296865930       -5.1649713794
Li         -6.0073888654        3.9114895972       -3.3444502154
Li         -2.3694576760        2.9507031439        1.9519732254
Li          3.9467020964        5.8898804783       -5.5099903502
Li         -6.1440827687        7.8878666222        5.8831476852
Li         -0.5180787878        0.5205086196        0.0186433805
Li         -2.4418536564       -1.4286152952       -2.3411107586
Li          0.3916509697        1.0617207307        9.5919455507
Li          4.6997551381       -9.8104562813        2.8958200713
Li         -4.3777855522       -3.3978879467       -4.7363130023
Li          1.0347353011       11.0573148802       -2.5327298186
Li          4.1813332455        0.8951013811        4.2012139614
Li         -2.9643936604       -4.9951183370       -1.5348206260
Li         -2.7782580337        5.7774009547       -2.5411104447
Li         -1.4163622731       -6.4677534160        1.6777920151
Li          1.2746726437       -8.2301224745        3.6459362603
Li         -1.0036959482        4.3393896529        8.0948851116
Li         -6.4071306415        1.2935137691        6.6850370589
Li         -8.7190358228        3.8045544314        1.3313404783
Li         -2.0326788215       -1.7177816627       10.6417334829
Li          7.4447924778       -2.6641798565       -1.2569555876
Li         -3.2446837751        2.2057238833       -1.6538245819
Li         -2.0460304466       -7.2994541832        5.3170695012
Li         -7.9859200221        6.4442191854       -1.4097418766
Li          2.8191094469        3.8383762871        8.4247557629
Li          2.2974203514       -0.3427856866       -9.1791064754
Li         -1.0195616450       -0.2184246648        3.5217047923
Li         -6.4682682231       -6.0582024111       -0.5205659686
Li         -7.8059082321       -4.9356288017        2.9130105234
Li         -0.1506043988       -3.1756077539       -8.1350761535
Li          8.4854951603       -1.8301277288        2.5885978248
Li         -0.9347056778       -2.9585175152        0.8371954340
Li         -3.7806351692        9.0427058108        3.1048474999
Li         -5.8002056894        2.0387179275        3.0089334011
Li          5.3049871971       -0.1860995295       -6.7259267482
Li         -2.0075764538       -0.6633819171       -5.9579030402
Li          1.2145085677       -6.3956856452       -6.5093001847
Li          4.7837549110        3.4927824000        1.4025090850
Li         -1.1892517196       -7.5953668199       -3.6917977976
Li         -8.7842785486       -0.7288875530       -3.1132043452
Li          1.3569942422        2.5215228411        2.3802194365
Li          3.3897461704        4.9811024087       -1.8507188966
Li         -2.2695232969        9.3434410040       -3.4117876653
Li         -4.8976769569       -7.4933229021        2.7342871413
Li         -4.9969229701       -4.8065357016        5.5449114672
Li          3.8385499968        3.0777441192       -8.1520482073
Li         -1.5142451322       -0.9621403475        7.0663480327
Li          2.6169857532       -8.0203810954       -3.3026939316
Li         -0.6404176787       -3.9238701914       -4.4484899051
Li         -4.8586519084        1.0623594356       -7.7869535748
Li          0.4727176416        4.8596988509       -4.4011565695
Li         -2.9090542053        2.2462837191        5.5573261705
Li          8.5144069443       -6.6647210416       -4.6299599624
Li         -5.8645580205       -2.4224980691       -1.3626539188
Li         -7.2128925330       -1.3621105842        2.0324013345
Li         -5.1835407902        4.7100769034        0.2858025876
Li          0.9596877070        5.6787969436       -7.9828888754
Li         -3.9730889789       -2.6492527252       -8.3945128035
Li          5.4168577018        7.1387510632        0.5489016192
Li          1.9197361117        6.0888785954        1.5615045855
Li         -0.0667419372        1.3128467299       -3.4841172583
Li          0.5032846499        7.5066892982       -1.6710345100
Li          1.0093387980        8.4145181219       -5.2805930232
Li          1.7447532177       -1.8957596921        5.3813521608
Li          3.3366797364        2.2635010681       -4.5613066800
Li         -4.4172301530       -1.1910877403        4.6050636453
Li         -1.5438448662        0.1298641802       -9.5523356512
Li         -9.5078334054        2.9973413230       -2.3628297674
