167

Li          5.6267884163        5.3102957393       -8.9789106256
Li          5.1837385569       -2.7118824454        4.3656950722
Li         -3.9372769127       -3.4067065271       -8.0067989921
Li         -7.2734791285       -5.2721483012       -2.6669179198
Li         -0.0823356027        5.5656611206       -6.1764699934
Li         -3.6496044691       -1.1169063110      -11.0307072247
Li         -3.1871749214       -2.3067656193       -4.4179376996
Li         10.5205043196        0.9825990252        4.8809763213
Li          1.4960113508        2.8059121734        1.8196921657
Li          2.0591983718       -7.0121313257       -5.1094335938
Li         -1.4402690399       -8.5890229757        4.4095464642
Li          6.0632999098        6.4765886360       -2.5725102014
Li         -1.5406476472       -0.7919766922       10.2136589209
Li          1.6062711662        3.6201195311        5.3864737914
Li          2.3857840060        6.2506746411        2.7356143058
Li          1.4465417186       -9.6427083373       -2.3266476672
Li         -2.9454552984        7.7703104383       -5.4853139376
Li          7.2431015776        4.5796198319       -5.7002842509
Li         -0.5885808611       -4.9578749176        5.1921687903
Li          5.4805445285       -1.9606062184        8.0624371499
Li         -1.8558779247        2.9812143641        9.2905399552
Li         -1.2305034139        8.2560574789       -8.7234230457
Li         -6.1311232739        7.3150457203        1.3440503598
Li          5.5594814825       -1.9583003846       -6.6317174074
Li         -1.5049076636       -8.2765788645       -4.4439957909
Li         -2.9447344940       -6.7228371896        7.4548339177
Li          2.2035138980        6.1954634822       -3.2499711733
Li          1.7434249743       -3.1419989999        2.9457051110
Li         -4.0661079857        2.5035292510       -9.8778246780
Li         -8.9743715387        0.4683902405       -5.8536961319
Li         -0.3830737315       -4.0053644530        0.0109806330
Li          4.9917792053       -8.2461383407       -2.8649594795
Li         -4.5709146726        7.6166668439       -2.1333126340
Li         -6.6266424393        6.8952137327       -5.5795463848
Li         -5.5386189879        4.2282400494       -3.5264488473
Li         -3.4869844599        4.8778466202        0.2760733014
Li          2.5242204715        7.0844335133        6.3795015602
Li         -5.1173916991        3.3734692647        3.2869410921
Li          8.5331400815        3.4515908618       -2.2097794934
Li          5.0547570250        4.2302555222        6.8498701465
Li          2.0073385017       -2.4436274769        6.5567792897
Li          8.2535429521       -3.0047173900       -4.1779858864
Li        -10.0607727223       -0.0315305424        0.1920448359
Li          7.8324426310        0.8035036125       -4.9259837413
Li          7.2205139667       -7.3809211131        0.1945681747
Li          2.5953980403        3.1178127145       -9.8442833561
Li          0.9660393749       -6.7192210063        2.1400482070
Li          1.1248100774        2.9071236653       -3.6861890881
Li          4.5057427352       -8.4562477518        7.2967072258
Li         -4.5211660763        0.5241394444        8.1172963897
Li         -3.8067125405       -4.7878641593       -1.4290798061
Li         -6.2855546277       -6.5354022152        0.8605736587
Li          0.7871621172       -7.6200465606        7.4005018152
Li          5.8932469422       -7.9595776302        3.7685563549
Li          5.7481229031       -4.6797327900       -1.9513082605
Li          2.3349276895       -9.3943849073        4.3082835407
Li          7.4353932104        1.2304345276        7.1681672511
Li          1.0440982086        1.6693756847       11.4815836402
Li         -3.9103624771        6.8527725183        4.3070895046
Li         -0.9459109464        4.5975194841       -9.6039774040
Li         -4.7457793446       -8.2585615090       -2.2122502638
Li         -1.2554568818       -7.4633507530       -0.8584249216
Li         -9.6837362885        6.2173086716        1.5201986532
Li          3.0439626054        0.2536203799       -5.1944150550
Li         -1.9724612479        5.0681397046       -3.0971576750
Li          2.9595674273       -3.4421428183       -4.1889736942
Li         -2.7390055227       -1.3593991967       -0.8111530071
Li         -7.5638995527        5.5831883554        4.5934831141
Li          3.3934696305       -5.1082582266        8.7714551024
Li          8.2000600244        3.9552869171        4.5248361564
Li          0.5785118296        0.2048849199        4.2724723365
Li         -0.5155430782        0.9454553765      -10.5780828299
Li         -4.3778121779        6.1333160153       -8.5999787998
Li         -1.9050886649        1.1048802275       -4.1051882310
Li          0.0960839765       -1.9291236815       -6.2383884750
Li          3.1275978137       -5.8004582207        5.1077714949
Li          8.4725117465       -6.7330539442       -3.3562697100
Li          4.8117590477        8.1065895950        0.6107659663
Li          3.0342271370       -2.6298417743       -0.5389457886
Li         -7.0777754790       -2.0354852566        6.8459545727
Li         -5.1668635426       -7.5939923063        4.4173002039
Li          5.5163056504       -0.9661059263       -2.7417754422
Li         -1.1413275359        5.7257155513        6.7675774790
Li          6.4990391673       -2.1147029245        0.7724877025
Li         -4.2638187648       -4.0114641537        5.2107723609
Li         -0.7352701774        8.5862783661       -2.5179011188
Li         -3.6549288055       -9.3361177570        1.3338976781
Li         -0.4969145260       -2.7566530345       -9.6937144014
Li         -8.6179752742       -3.4680931826        0.4279195542
Li         -6.3168108182       -0.3153178474       -8.4642243805
Li          1.0909616247        8.9565555789       -5.7521608309
Li          2.2361502322       -1.7171775374       10.1831482920
Li         -2.4291509096        8.2917776464        0.9766842267
Li          3.8037638638        4.6052346101       -0.3634328907
Li          5.5217213697        1.6762984981       -7.7511038706
Li        -10.4956786312        3.5753004131       -0.9938639269
Li         -1.2603378872        4.7171229683        3.0999727040
Li          2.8598669150        1.0804516277       -1.2283067609
Li         -4.7566306233        4.2880218658        6.9926838273
Li         -0.5892052701       -4.7305559946       -3.5449190344
Li          2.6183484228       -4.2501015391       -7.7652449280
Li          2.5918217719       -0.5893688231       -8.8253295096
Li         -4.1013034395       -3.2985295743        8.8885670748
Li          4.4933575667       -5.2928192272        1.5996310996
Li         -1.9286000552       -2.2604662851        2.9593482080
Li          3.3250054047        4.1593141313       -6.3135386355
Li          3.7160810337       -8.9202551567        0.7237574414
Li          0.1191004653      -10.2287298092        1.2708794325
Li          5.6098861061       -5.6036261411       -5.6070352027
Li          4.0192562756        0.7025941560        5.7702542080
Li          2.2050829654        6.8004134384       -8.8019315644
Li          0.2262019689        5.8730894697       -0.1785491613
Li         -9.1484062862        4.0922987387       -4.5365992408
Li         -4.2690832321       -5.7563419636       -5.0468836793
Li          8.0092060170       -4.8242707574        2.9822612203
Li          4.6155634844        7.5296022717       -5.8708477552
Li          9.2358325341       -4.1666641600       -0.6318475619
Li          0.3271217604        1.9442077959       -7.1348471771
Li         -3.1443543143        3.6130359881       -6.3539343842
Li         -2.6940384199       -0.0231516876       -7.5828148993
Li         -2.6024336850        1.2561145537        2.0162899780
Li         -7.3923017960        1.7972576916        5.8741110002
Li          0.8450802706        0.9090237795        7.8617809553
Li          9.0445108023       -0.3645829303       -1.4531204855
Li         -2.7953850471       -5.8212127244        2.1866339293
Li         -4.8206039557       -0.3676512748        4.4423185004
Li          1.7725015020        4.4030847928        8.9805262154
Li          6.2333951776        1.6681872533        0.0440640112
Li          9.6416807324        2.2216044151        1.3503034623
Li          1.2406318331        9.3132710968        0.6052978560
Li         -5.2305022809       -2.9652205012        1.6243685291
Li         -6.4014977788        0.4438890960        1.1332089028
Li          7.2848727881        5.2325024795        0.9646503313
Li          2.2846735870       -6.1491694670       -1.4431997602
Li         -9.1633817582        2.6482070579        2.6746633060
Li         -0.3697104884       -4.2455295801        8.9073321372
Li          3.7360510463       -0.1016787320        2.1863164786
Li          7.1227115920        0.4589889710        3.5263471127
Li         -6.7870747555       -2.7715492286       -5.5442466998
Li         -0.8486822161        2.4813057182       -0.8125286186
Li         -8.5919553944       -1.0817807585        3.5469906248
Li         -1.7550229756       -1.5444814340        6.5908416621
Li         -6.1160072618       -1.8015498153       -1.9345440707
Li          0.4164572823       -1.1746096064       -2.7744605484
Li          4.2539523170        1.4605085123        9.3853006166
Li         -8.1985551716        6.6662377702       -1.9941201915
Li         -0.3206585601        8.2939887462        4.0702882403
Li          6.5776336136       -5.3530467142        6.5521877007
Li          5.7655047087        6.8809111458        4.1575814918
Li         -5.3958516816        0.6929148234       -4.9941710111
Li         -6.7254126577        3.3563014370       -7.2682080182
Li         -0.9392757548       -5.5077649272       -7.0704748261
Li         -7.8933669620        1.3358873236       -2.4062597206
Li         -6.9797026551        3.9450215374        0.0660188947
Li          0.3392929852       -0.5030625459        0.7614619218
Li         -7.6590528290       -4.6967071327        3.9411407091
Li          5.0568006213        2.8721093189       -3.4172250173
Li         -2.1498394141        2.1660056749        5.6213308489
Li          4.8303034970        3.3997748821        3.1723454646
Li         -2.0908296281      -10.9476427226       -1.7620082294
Li         -6.6328689564       -5.7735270190        7.4472285107
Li         -9.5688075667       -2.0635671561       -3.0260615518
Li          8.5902283950       -2.1855613048        5.7418000327
Li         -4.2842296817        1.7074956318       -1.4379283858
Li          3.3227309385        9.4592523306       -2.6176013913
Li          9.9199991323       -1.5772668176        2.1215936385
Li          3.2595041480        9.7128559574        3.7462459297
