172

Li         -0.2338986297       -4.9331341292       10.2725456489
Li          4.7546911391       -0.4572215990        9.9303542174
Li         -2.0362219245       -6.9996229873        7.5125515588
Li          9.0200085617       -4.5518712138       -5.9584804509
Li          1.5556575862        1.6974092913       -8.5575926839
Li          3.1537368839       -1.3262113487       -2.9812317644
Li          8.9886221571        2.9953259910       -4.5227296455
Li          0.2905170994        0.3169852501       -1.5989453395
Li         -5.4687359847       -3.8293207874        0.0596081386
Li          4.8143234454        5.6067742586        5.5179364686
Li          5.4954206333       -5.7116072330       -6.8847505748
Li         -3.2695556583       -4.5459018713       -3.0841217398
Li         -4.0544016007       -4.4680469226        9.6702427784
Li         -0.2228317412       -8.6789124664       -5.1403709323
Li         -8.4877921195        3.9069701013       -0.6556818558
Li          2.4518223493       -0.1819712001        4.0414959595
Li          6.8117475126       -2.2566669598       -8.0703210257
Li          3.8993067147        5.2514334097        0.1093370134
Li          4.4623617790        7.9974045584        2.5267819591
Li          0.9014339043       -1.0382005910      -10.9808218147
Li         -2.0735477062       -5.5684669974        0.2506429567
Li          5.3982534953        3.1337076946        8.5651664699
Li         -6.4983105737        5.8037739024       -3.3818151624
Li          1.1679768940        2.9435821931        0.8169370119
Li          4.6885415915       -8.0837123842       -0.6387075674
Li         -3.4489771053        0.7405819609        3.1517282808
Li         -8.4735627816       -3.7197404466       -2.1488902943
Li         -8.3891051939        4.8944398395        3.1191493351
Li         -5.9120609590       -0.0795886638        0.6415468970
Li          1.7857919793       -7.3361588029        8.0262136618
Li          1.6413679361        9.2884293841       -4.6101505766
Li         -2.7358637757       -1.3831354296       -9.7268276718
Li          3.8550223581       -0.6268271600       -6.5464657904
Li         -5.9777701189       -1.9288551504        3.8785551575
Li          3.2106337989       -0.3021208985        0.5444715917
Li         -2.5160006029       -8.3440540603       -2.1292937271
Li          5.2725887918        8.0661939113       -4.2031324585
Li          4.4507566415        3.8786466315       -9.3603607818
Li          0.2046328511        6.3831774600       -0.2848507399
Li          0.2573848798       -1.7308195220       -7.4194744041
Li         -2.0272982390        1.3778256641       -7.2182121953
Li          6.0941983092        0.8216263763       -3.7420538113
Li         -0.4009031634       -2.3876975922       -3.8378924487
Li         -3.9301131268       -7.3243440980       -5.4939598436
Li          9.2339449728       -3.3130100172       -2.3569099208
Li         -9.2453139086       -0.9170092014        5.0996253472
Li         -9.2309543031        1.3063236389        1.9371509083
Li          3.3715788023       -7.6112591659       -4.2484211847
Li          0.9013543662       -3.4468463361        3.1120794631
Li         -2.6303979092        0.6917413046       -3.6324140077
Li         -2.4935934620        2.1160059592       -0.0128675881
Li          4.2787237041        2.7743595263        3.0601491603
Li          3.7938368403        3.1641548381       -5.8056457912
Li         -4.7982189984       -8.1795147397        0.8614868312
Li         -0.0059168251       -9.3187543323        5.1823287263
Li         -8.5522873797        2.6884860141       -4.3481969790
Li          0.8113340438       -3.1354459831       -0.4537076385
Li          6.7887677215       -2.9186126659        7.6869986157
Li          6.2399914030       -1.7668339316       -0.8571918088
Li         -1.9860487783        5.0764908153        2.3779208344
Li         -0.9621783252       -1.0498457309        5.2929508695
Li         -0.2368627768        2.4060650608        4.0660071589
Li         -1.6942402135       -7.8400277056       -8.5583875779
Li         -0.6040413883        7.8242064076       -7.4189479305
Li          9.1985561679        0.4635092114       -1.5875387885
Li         -0.9867287347        1.8045496799        7.6490378568
Li          6.9026645102       -6.3648389822       -3.3343599964
Li         -3.4456179507        5.4319121137       -1.1900793387
Li         -8.8265542554        0.0899064379       -1.6036197741
Li          1.8707153605       -0.7679817643        7.6582573633
Li         -5.7960833531       -6.4173580887        6.8301017511
Li         -1.4087623788       -6.1219930374        3.8774965153
Li          3.1213063388        2.4096146096       -2.2462172834
Li          7.2754893903       -5.2424546112        0.2658816420
Li          6.6855109300        5.3436535732       -6.5857954654
Li         -0.2725236093        5.2649546179        6.3248111553
Li         -2.7139252867       -1.6409146031       -0.7981233839
Li         -5.4083023578        3.5974402302        1.5436346974
Li          8.9756158660        4.2410324920       -0.8538625144
Li          8.7897193175       -0.7489909767        5.1227160560
Li         -1.3939480625        2.0826231732      -10.7790972773
Li         -0.3174843437       -0.3464500114        1.7465302751
Li          8.9761420429        1.6869472378        2.0787108509
Li         -6.7750513685       -2.7320923642        7.4975083365
Li         -3.5385116541        3.5628842277        5.4112653934
Li         -2.8386324717        4.8536430409       -8.5084707586
Li          1.6036831780       -6.4275795082        0.8299285111
Li         -5.5611202458        2.3158723927       -2.1397048440
Li         -0.5761113213        9.8363398556       -1.4804493137
Li          7.2285729595       -4.0613362632        4.0391766012
Li         -1.1739392576       -9.0193550252        1.5282828224
Li         -1.6060920051       -1.7524082980        8.8349018135
Li          3.0986241991        8.7544703692       -1.0519443664
Li          8.8374832639        6.7382856972       -3.7523115351
Li         -1.6305581325        1.1393955991       11.2231158717
Li          2.0405967348        8.2267756252        5.6761332539
Li         -5.5560779111        1.0265682131       -5.7792393563
Li         -4.2306281034       -0.0263229585        6.6961585082
Li         -6.3295950149       -4.3107948149       -5.3573375523
Li         -1.9896936029       10.4277794469       -4.9887584616
Li          7.3982456928        2.8597577894        5.2682449363
Li         -6.4412703705        6.9748863468        0.3418109667
Li          0.3927938788       -4.1887094478        6.7110925742
Li         -6.3926983055        4.4707885760       -7.0262123331
Li          0.8326790421        9.0976364546        2.0682188335
Li         -2.2509871076       -2.4560297444       12.3822900432
Li          1.9314525525        2.1800971040       10.0546256661
Li          6.7211856180        7.4949382133       -0.6699563938
Li         -3.3780075163       -3.7303427708        6.1164870582
Li          2.5312073837       -9.6286014525        2.2237124742
Li          9.0636124287       -0.7838651048       -5.2693514621
Li         -8.7812739080       -2.4153651738        1.4552340413
Li         -1.0244760372       -5.1147711462       -6.1735797630
Li         -6.2973077395       -1.7042365885       -8.2443465403
Li         -6.8573965117        4.6547908662        6.7083918549
Li         -4.2885854857        8.8087014555       -2.4108361442
Li          5.2789337227        0.1400441736        6.3175376618
Li         -4.9830058209        1.7569201199       -9.4183921994
Li         -4.9175999149       -0.7150251862       10.2577235146
Li          0.3416573221       -5.9239317136       -2.7539691402
Li          2.5380382142        2.7638070485        6.3574668419
Li         -8.4986051260        1.4178312002       -7.9590738644
Li         -1.2443845916        7.0202227575       -3.8065480460
Li          6.0596359666        2.0351088761       -0.0829068644
Li          6.0878164950       -2.9165465000       -4.4445857480
Li         -1.6929998814        8.1289269728        4.6606931891
Li          0.9151433150        0.9985628543       -5.0342913684
Li          2.3975078412        5.8666988916       -3.4133974086
Li          2.5432937175       -4.0775861139       -5.3593254132
Li          3.9124410006       -4.7194348186       -1.8129567938
Li         -0.9923366488        4.7130501293        9.9110765819
Li         -0.3997752781       -4.4733989073       -9.8209667153
Li         -2.9351137227        8.4039348011        1.1164400418
Li         -8.5802162122       -1.1872953616       -5.1736953839
Li          1.7013724038        5.5891901828        3.2311198584
Li          5.2909298047       -6.3091910477        6.6726906183
Li          0.7996474654        5.1214132879       -9.7776019704
Li          3.8542832392       -3.2217660368        5.4095453717
Li          4.5136507378        0.0717927008      -10.1039950762
Li          4.2247337546       -3.8045206412        1.7454447976
Li          5.4791795545       -7.2193062660        2.9202413454
Li         -5.0802619906        6.6240845008        3.9209844985
Li          6.8396846922        1.5588397287       -7.4025653890
Li          1.1740309569       -9.3068324607       -1.5032586333
Li         -2.7454695257       -2.8766715889        2.5621843766
Li         -5.6443991670       -1.4748315245       -2.9596958515
Li          1.9130063366       -6.8223219371       -7.7669665991
Li         -3.5856289469        6.4662627358        7.5929610331
Li          1.2641334832       -1.4675548403       11.2322704894
Li         -3.3480444846       -2.0603479625       -6.0301948279
Li          7.0164645432        5.1083117141        2.2718426156
Li         -5.1144429800       -5.5450136255        3.3004359719
Li          2.5543145271        5.7175265229        8.6301597328
Li         -0.4537328091        3.6568112387       -2.6487109907
Li         -4.2209746084        7.4973588826       -6.0417863883
Li          3.3446991845       -3.9637255049        9.0929424971
Li         -7.5130980015        1.0294578676        7.9950036499
Li          3.2456624085       -3.4194302630       -9.0433441403
Li         -8.4396898176       -4.6381275574        4.5775196336
Li          5.9518403079        4.5832248384       -2.9816974699
Li          6.0350504528       -0.6065514592        2.7900414212
Li         -6.1047043387       -6.7116443410       -2.3286435953
Li          3.0793861176        6.6718831562       -7.0719984073
Li          0.1583347517        4.4031108437       -6.2208152884
Li         -3.7592955274       -8.8126857098        4.5308633295
Li         -6.6960342375        1.7513703221        4.4601244588
Li         -3.4381131343        4.0855925579       -4.8275344962
Li          2.2864490559       -6.5408203480        4.4483818294
Li         -8.0858640553       -6.1407850606        0.9854451524
Li          9.1688545547       -2.0652490615        1.3864628464
Li         -4.3229003849        2.9412828515        9.0685956752
Li         -4.0107230470       -4.7997389513       -8.4319833344
