198

Li          5.3436114700        9.1331666349        6.9663595787
Li         -3.2239296239        3.2031224943      -11.8462538614
Li          7.2167167744       -6.5962726277       -2.1453480323
Li          1.6163732488        0.2016845889        5.1454331045
Li         -3.8813497079       -3.2854613545        5.0671461619
Li         -4.0023928851       -3.8623150734       -8.9903332229
Li          0.0837912658       -2.4308282868       10.5191864931
Li         -5.6057117586       -9.1529305069        5.8458095293
Li          6.9701993385       -1.5845307636        0.2590396287
Li          7.1665590557        6.7155547858       -4.2304519026
Li         -1.4373034432        7.4685871837       -0.1117050209
Li          3.0299629317       -5.9445991259        3.6530859458
Li         -5.4084273371       -0.5653735577        2.6357773522
Li          6.6414232378        7.5252944764       -0.5014277218
Li         -2.8626510597       -4.4314232667       -5.5009387439
Li         -7.0634546019       -7.1706938800       -0.2755330061
Li          7.8621057009        0.1687373095        3.3463267508
Li          3.8799199989       -4.9145249018       -5.8153447934
Li          1.2617516357      -10.9478358370        2.9839483378
Li          7.6691196074       -1.0279179625       -5.1885997410
Li          2.2196587149        3.4895175691        3.4702802809
Li         -1.8800132654        7.0142192777        8.5518070611
Li          1.6732808895      -11.4455437727       -0.8145429501
Li         -6.5326134089       -7.6338732370       -4.0430282645
Li          2.4568856868        6.9288753696       -8.4464962710
Li         -2.9879893645       -3.9924237186        8.7325961817
Li         -0.7865314887       -1.8127773070        6.8712034578
Li          9.0873492175        0.6442681671       -1.9478306554
Li         -3.2488376445        5.1338508915       -5.6389984160
Li         -0.4892910824        1.9125241469        7.6983847956
Li         -5.9411623253        4.3474826494       -3.0136830081
Li          5.5274759698       -3.2352577628       -2.8782199380
Li         -4.2430568814       -7.3349853891       -7.2665052410
Li          0.7665141364        0.7357704976        1.7105565057
Li          2.8732857652        3.1320409690       -9.1137854869
Li         -5.9838579937       -5.5663618693        6.8910082151
Li          3.0595782230       -0.7123216214       -9.5680327461
Li          1.4983166484       -5.1997665709        0.2786438132
Li         -0.5143446301       -2.3398838952       -9.8270894664
Li         -3.4031462797        4.1208411245        6.6588377659
Li          6.0451230967       -0.6341032091        9.6693581319
Li         -6.2884904599        8.6902296897       -0.2562352973
Li         -1.2263452980        7.7518076155       -7.5101699479
Li         11.4498052966       -0.0679966505        4.2459372148
Li          6.0078589144        1.1463253156       -7.9182110838
Li          0.4716068219       -6.3883380484       -4.8354134346
Li         -8.9280482575        3.4341783843        2.8578848934
Li          4.1536994998       -6.5674306527        7.1423560893
Li         -1.3958261632      -11.1062639361       -3.1326246182
Li          8.1957076605        5.3232267055        2.2805756562
Li         10.5092530392       -1.5832462087        0.9356337104
Li         -5.2159901827        1.8142322806       -5.8153723600
Li          0.5828692863       -2.9209992875       -6.4067142279
Li         -2.6069198630        3.5853259504       10.2580246690
Li        -10.3180852589        2.2363146092       -0.6066304734
Li        -11.4519632262        1.0365497779       -4.0953671011
Li         -1.2819099921        2.4499810681        4.1552106998
Li          3.4894183218       -6.7007881635       -2.4775426789
Li          2.6463753981       -4.4262232273       -9.2138223150
Li         -5.3228411435       -1.6681219947       -4.2951025965
Li         -2.8887894148       -7.7061222843       -3.7134102053
Li         -7.5810662156        7.5626907186       -3.6959647756
Li         -2.0084110276       10.2337492993       -4.6476749668
Li          3.1980866497       -0.8982498345       12.2264845704
Li         -1.0269813840        8.7644284358        5.1862402866
Li          9.4593903804        3.0210895028        5.1326544179
Li          7.5842448922       -4.8690706164       -5.5269303179
Li         -3.0790095075        1.9267225925        1.1483222206
Li          1.8891049348       -3.4551250939       -3.0798199510
Li         -9.0850749118       -0.3469178875        1.9762090887
Li          0.1869537747        5.2993416167        6.0060636676
Li         -2.4687285043       -7.3436645849        7.1327385909
Li          3.9528114014       -1.2557213797       -5.8760993402
Li         -1.8260062020      -10.6921994118        0.6668703099
Li          0.3006041776        1.3450401828       11.2603326890
Li         -6.4234227702       -1.0734983527       -7.9020422130
Li         -5.4564762471       -4.2017526460        1.5403506304
Li         -5.2432247287        3.2639399249        3.6168922893
Li         -1.6392187804        1.8921656582       -4.8010654641
Li          5.8208696115       -6.4751752075       -8.5616684642
Li         -6.5946074692       -4.5298723412       -6.1531326507
Li         -6.0648338331        2.4985464583       -9.3591936821
Li         -5.4508681889        5.8498416473        9.2217507024
Li          6.7625831821       -6.1523162593        4.3155348691
Li         -7.8683150930        1.0723401659       -3.1417364919
Li          5.2022823804       -0.1092452575        6.0957428628
Li          9.1511204022       -3.2084773849       -2.3379623640
Li         -3.7381004901       -6.7020575809        3.7810401247
Li         -3.6821557222       -0.3107726187      -10.5324882187
Li         -6.8522291383        6.6719971237        2.9723724581
Li          0.4041340612        4.4258284339       -6.6149263258
Li         -8.7995000318        1.7661036984       -6.7343352055
Li         -0.8033146100       -5.9087816534       -8.3434594742
Li          1.0430276562        4.7919074580        9.6675787130
Li          6.0357792398        8.3348649362        3.2443238029
Li         -4.2872786110        1.1535997449       -2.2944607036
Li         -1.4107254510       -4.8239561758       -2.0293799817
Li         -5.2846056686       -9.6517939549        2.1106258499
Li          0.6337449945       -5.4977719754        8.4230987185
Li         -3.3352520668       -7.2477738237        0.0461759020
Li         -0.3744064176        7.0145985524       -3.8828738704
Li         -2.4640861484        2.5473226646       -8.2939819688
Li         10.2482798142        2.2275939278        1.3726107381
Li          2.4282869697       -7.9184939827       -7.5805134281
Li          6.1025814346       -2.7290368940       -8.3524015497
Li          6.7072340669       -8.2571392035        1.2338524479
Li          4.6822163025        5.8598178278        8.8421860696
Li         -0.3861008484        5.0709204265      -10.1653883605
Li         -2.1894258579      -10.0857414692        4.4416064097
Li          5.4261908069       -2.8739225695        3.4855459860
Li          3.7407098934        6.2964855702        5.2321344992
Li         -0.0594930672        1.2740442537      -10.7355899994
Li          4.3309205758        9.1560957144       -2.9656064784
Li         -0.1786536954       10.4019658196        1.7902919570
Li          5.5119979791       -8.2083673725       -5.2121668229
Li          1.1971883981        3.7536329772       -3.0922317800
Li          0.0135171980       -1.9992933127       -0.3482878589
Li         -6.9221002915        5.1121563354       -6.6127342635
Li          3.9734211670        2.4846125188       10.6066961357
Li         -2.4023981803        5.7645807528        3.2586166049
Li          2.2024756842        6.6060046436       -1.1178999674
Li          1.8050934706        0.0753974748       -3.3968114157
Li         -1.8212635328       -4.3425334777        1.7097066127
Li         -4.5926289611        7.4722938678        5.8522923687
Li         -5.8098362164        2.0506568877        8.5901526540
Li          5.2305946868        8.7997154718       -6.6832822221
Li         -6.9549369766       -1.6423633006       -0.8702000289
Li          5.4183976693        0.5611273486       -2.6618986138
Li          2.7923723639       -3.2122938243        6.3008382208
Li          0.7202580785       10.0340134495       -1.9311410379
Li          8.8048982725        4.4922493963       -1.4857287544
Li          4.4870118181        5.3692042862        1.4393747253
Li          7.5006213296        2.8534901928       -4.7490409391
Li          7.4088914765        6.0881993747        6.0606529119
Li          1.6310813706        9.5560675846       -5.6860047794
Li         -1.6092089369       -1.5620224686       -3.6457143461
Li          5.8384751299        3.2385299756        4.3145143962
Li         -3.7599928651        0.4371301287        5.9230506758
Li          2.4405098235       -0.3404714998        8.6574462718
Li        -10.4917563323       -1.5006005216       -1.4912070060
Li          6.8073791629        2.7761490031        7.9688735600
Li         -2.9071734495       -0.2222953894        9.6009658768
Li         -0.0687406092        4.2050603426        0.7248513757
Li         -9.0782323394       -4.0989735540        1.0452219075
Li          5.1116135776       -9.9344975611       -1.8351371831
Li          3.0738728736       -8.4532465673        0.8963037310
Li          3.7452942956       -3.7489629023        9.8010494436
Li         -7.4396112701       -6.6839823961        3.5008752083
Li         -3.7462165790        9.0474045883        2.4543511183
Li         -0.4548240386       -4.9235690777        4.9984985341
Li          6.6260103376        2.3168442777        0.4984574862
Li          1.6959491005       -2.6537578856        2.8783397512
Li          4.4662219869       -9.2349673510        4.2957523810
Li          3.0239697745        2.3218193030       -0.4184780122
Li          8.7909095042       -0.3523382652        6.9701327967
Li          3.4678738122       -1.5444679433       -0.2852730576
Li          5.7090403984        5.0237059459       -7.3727669943
Li          1.7385016323        8.1389632838        7.8196185361
Li          4.2739307585        0.4229400246        2.5530241710
Li          1.1927704340        7.0437366682        2.6151749641
Li         -0.7855744207        1.2519704960       -1.3867961807
Li          3.4557246186        9.4590554616        0.7581587410
Li         -9.0248264387       -1.7442113125       -5.1407615827
Li         -4.8769758095      -10.1483214429       -1.6424185116
Li         -7.5468303630        0.8320764190        5.3698424664
Li          3.1326203019        3.0169723922        7.0380604275
Li          6.5014611505       -3.4934808778        7.1042320374
Li         -2.3313382308        4.4037201606       -2.1263025326
Li          8.6290976902       -4.9295191906        1.0657852929
Li          5.0510186713       -4.9534472754        0.5185054060
Li         -3.4556963026       -1.6699223817       -0.3264191663
Li         -2.7101955651       -0.9591107990       -7.0597791201
Li         -1.0130095693       -9.3290483332       -6.5356624957
Li         -3.9586751337        7.6106812539       -2.8598079069
Li         -8.5584287355       -4.5888690316       -2.7397418917
Li          1.0140542941       -8.3517332323        5.8218740628
Li         -8.3623512740        5.5065734695       -0.4058604685
Li         -1.7730270372       -1.1316225439        3.1981739692
Li         -7.3366514678        4.6471029496        6.2010443867
Li         -9.5616804068        4.3074861490       -3.8749732568
Li          2.6041516495        9.8734794463        4.4663929096
Li         -4.9795223287       -4.6670792402       -2.2467034216
Li          0.8169893406        0.6549767480       -7.0875369047
Li         -4.8848618416        8.3511591140       -6.3870792074
Li          2.0882919253       -9.7743652395       -4.2380267907
Li          5.1306644918        4.4815358405       -2.2787335032
Li         -0.3049417806       -7.6604917675        2.3730922159
Li         -7.6102362153       -2.9641176063        4.4714700448
Li         -5.9964122482       -1.7812603839        7.7911873512
Li         -6.6909656408        2.1240484116        0.2715268127
Li          0.0957394545       -8.1700512251       -1.4303452521
Li         -4.0935596269        5.8117125447       -9.1862398251
Li         -4.6454684816        5.3718454436        0.4147535861
Li          3.2488157769        6.2423426673       -4.8703469537
Li         -2.9723640131       10.6763448582       -0.9347005629
Li          9.1242467965       -3.1187629264        4.3091772980
Li          3.7242010008        2.5404736564       -5.4225389526
Li         -4.4486149430      -10.6055118825       -5.3819116775
