200

Li          8.3338542483        2.7645217893        9.1575200550
Li          7.6126496424       -3.3280964462       -5.5415897794
Li          4.8999739235       -2.6902066379        8.4182413007
Li         -3.8367204729        9.1007040360        1.4031593299
Li         -5.3598371874        3.8387239934       -2.4763222044
Li          6.4875233183       -0.8487871827       -2.9518031372
Li         -5.8304275761        5.8483685588       -7.5493326938
Li         -0.8966269053       -5.4249960152       -9.7902570394
Li         -7.2749041851       -0.0340829653        6.9321756641
Li         -0.5751424270       -1.7098131847      -10.7007736837
Li          3.5506918035       10.0641272228        3.8428991683
Li         -5.8196725775      -11.2113779806        0.9835049451
Li         -2.5788844523       -0.2329194227       -4.7530698799
Li         -4.7649591710        2.4491010463        8.5277125105
Li         -7.0780517280        6.8009937204       -3.9523146375
Li         -0.2615184938        2.0550749350      -11.4226314515
Li         -1.0483955510       -6.9383739159       -1.1718998530
Li         -4.8588778667       -0.6698783531       -7.5681226550
Li          7.8811500709       -0.6470595884        7.3961755071
Li          8.2975274558        7.8505669962        0.3683807929
Li          2.9881317826        4.3736504106        1.0561863014
Li          1.9935636989        3.0771597406       -2.1978914207
Li         -2.0857848519       -8.8678951583        5.8910901500
Li         -5.5515136743       -9.2570404764        4.2633525588
Li          4.6660088962       -6.2738335924        7.0822852876
Li          9.3794924519        2.8399333857       -3.8957491407
Li         -3.8913917472       -5.9623006409       -7.3785319525
Li          0.8555571204        7.0676831983        0.0678227073
Li         10.8521815985        1.8336557342        2.0473022820
Li         -8.9302325950        4.1565417852       -1.7255678642
Li          9.0638743387        5.1405586360        3.0437144732
Li         -3.6082673842        0.9432993321       -0.9372584767
Li          2.8869854252        0.2181221388        7.0450541951
Li         -4.7721347868       -5.0064132338       10.6311674924
Li         -7.0818716585        1.2140291439       -0.2885412477
Li         -8.1996201573       -1.4543643073        1.9433290266
Li          6.2604749689       -6.8785977509        0.0190809397
Li          0.7103936121       -9.9851316354        0.2646045936
Li         -7.0698583529       -3.7820030868       -7.7570188652
Li         10.4635086263       -1.6301223526        0.2509708302
Li         -3.4394774618       -3.8533435373        7.3893283720
Li         -8.4219024710       -5.6321457493       -1.4966805214
Li          5.9255302018        2.2831902316        6.4025929603
Li          2.6018552684        4.0768880365        6.3893344676
Li         -4.6137588759        9.3204862949       -2.4067065920
Li         -4.6385474022       -5.7125702177       -1.9727723141
Li          9.6085646232        2.3030493476        5.6154836612
Li         -0.6388498037       -7.9724101684       -6.9046451414
Li         -1.7846152211       -2.8449927338       -7.2866709006
Li         12.0421033449        1.4244710425       -1.5193821686
Li         -1.8672366695        3.2248412677       -3.3416131181
Li          3.5853959186        1.7531992574        3.6503647833
Li          0.8299823720       -4.1730307083        2.6089400328
Li          4.1091700133        5.6502958124       -8.6957833315
Li          7.8145281376        0.4393839698       -6.3152843759
Li         -4.8139900248       -1.2803089701        9.5937521132
Li         -4.5216122364        3.8198403130        1.2391934970
Li          0.4618506471       -2.3482370279       -4.3893303587
Li         -5.0608121808        9.2711157907       -6.1399090725
Li          1.9876601847       -5.9890504914       -3.3729778295
Li          4.5233455489       -3.8154223782       -1.2381146260
Li         -6.8150493634       -6.4131279042       -4.9073570524
Li          0.1984202677       -9.3767222257       -3.5282615406
Li         -5.9906091035        1.1603912383        3.5233465159
Li          4.0148973130       -2.9984483816       -4.9288087715
Li         -1.9061201832        6.2286142169        2.6068998131
Li         -6.4513744595        6.7037322663       -0.1505633791
Li          6.6620741886       -7.4208082068        3.8764853777
Li         -4.2393983479       -7.8757509862        1.0285881175
Li         -3.7684770892        0.4858504316      -10.9727383722
Li         -2.6086924269       -4.6145541355        1.0468196889
Li          3.0044286648        4.4220750789       -5.4224067638
Li          1.6894246222       -1.2475283046       -7.6732198271
Li          2.9420046387       -0.1298069644      -10.9650880002
Li          2.2717677632       -7.5116028282       -9.3577239380
Li          7.6067983999        6.1478059856       -3.0403688078
Li         -8.6065880704       -2.9999106408       -4.3414358599
Li         -1.6132531024       -5.3078497827       -4.3822411908
Li         -0.8153097457        5.8210709016        6.1875532217
Li          2.6728556701       -6.9875716204        4.1160696871
Li         -6.2960744430       -4.7484531664        1.4786244681
Li         -7.9603079799       -8.0637684145        1.4865185681
Li          9.2230296746       -1.1905593890        3.8457125893
Li         -3.5135190767       -8.4074757050       -4.3974533057
Li          7.2198988176        1.8124404104        2.8410806959
Li          5.3428612521       -1.7720265238       -8.3107801697
Li          4.9529149824        7.5871381403       -5.4346679842
Li          6.2415002855       10.9473113112        1.3273999381
Li          0.4616210209        5.5607284326       -9.9758465085
Li         -0.9948256849        3.6756684652        0.0637591381
Li          5.4767101506       -1.1643520756        4.5003430922
Li         -4.5517843758       -1.4788208865        1.4643644007
Li          1.3961038992       -8.3069281170        7.4137035266
Li         -2.7450316166       -2.6088753523       -1.9868838148
Li         -1.5894444437        0.6086964828        9.9577649234
Li          8.2145720926       -4.0111679851       -1.7739825850
Li         -2.1711202042       -2.6504456870        4.1865899475
Li        -10.2481889044       -2.2863907672       -0.9504198674
Li          4.9820806646        4.6384114781        9.1748564794
Li         -0.7799858378       -7.4685918748        2.5986368439
Li         -4.6219190414        6.1373567613        7.4337901874
Li         -1.6938490833       -6.7110599401        9.0936555817
Li         -9.9613030385       -4.7970297725        1.9699256707
Li         -9.5429575355       -2.6587971665        5.2020390724
Li         -1.6916850784        4.4041614335        9.4304621578
Li          0.8192056843       -3.5572893725       -1.0757330236
Li         -4.1869602263        2.8161153374       -6.1601674895
Li         -0.3957508347       -5.4689225612        5.8517322350
Li        -11.8727103474       -1.5315311256        2.4442322310
Li         10.0347739633       -1.0333248974       -3.5326921770
Li         -9.5385164062        0.6437478398       -3.1834250539
Li         -7.6522256115       -6.0326588874        4.7813413998
Li          4.6405630558        7.6230043967        1.1870541120
Li         -2.3187737023        7.4521698394       -8.0751128782
Li         -3.4772053420        6.2495862115       -4.6883074783
Li          8.4214961431        1.3148684036       -0.7288762229
Li          6.7944441751       -1.6625687594        0.9186293677
Li          1.3971308544       -4.9432344788       -6.8306012484
Li          6.6970215411        4.2094636464       -6.2719734352
Li         -0.5505819741        1.9723994062        6.7478200044
Li          4.1589891590       -9.5333213323        1.8567476537
Li          5.5426423645        1.9788940359       -9.0609791490
Li          4.9332314910       -4.5146512906        2.6578974358
Li         -4.0853591318       -3.2759488320      -10.1626372237
Li         -9.6629645658        1.1271519152        4.1761695569
Li         -1.4687344426        9.2949454334       -4.7948007184
Li          1.5683141259        6.4401226626        9.0463902488
Li          5.3516033547        5.0181992488        3.8451843119
Li          0.7779340665        1.3594093504       -5.1767672523
Li          6.6037873667        4.5530211061        0.2160175151
Li         -6.0109404277        0.3223808785       -3.9000204770
Li          7.0392481672        8.3158437228        3.9896535425
Li          1.7154391786        2.6297506622        9.7497203480
Li          7.3238686272       -4.0573720906        5.6294480494
Li         -0.3632140230        0.2264177319       -1.9821636759
Li         10.2141165138        4.6382308467       -0.5854882684
Li          0.2850656871        3.4722818224        3.5688779400
Li         -2.3955932065      -10.7881961521        2.5497156333
Li        -10.5983437120        1.3858377486        0.4468795021
Li          4.8349895014        1.2986077557        0.0928752619
Li          0.2086809836        6.1827827161       -3.4077346866
Li         -7.8140682135        3.3281776248       -5.3756850754
Li         -1.8163075378        8.1922719706        8.8607109396
Li         -2.7888391747      -10.3260745752       -1.2550643131
Li          1.3414187926        7.5671165666       -6.7827920662
Li          7.7317270263        5.5712435363        6.6280609522
Li         -0.2934354212       -1.8536492731        7.3824200698
Li         -0.9586905970       -1.4417852310        1.0416498378
Li         -2.3450099652        1.2359481417        2.7794675756
Li         -3.5333954061        3.6377828822        5.0908297124
Li         -2.7936095434        6.5002265303       -1.1022326652
Li         -5.8610551477       -2.6713297588        4.6808522994
Li          1.0456276450      -10.3373830306        4.1079331325
Li         -2.8890150735        8.7360036498        5.1883841403
Li          2.1071665911        9.2844716169       -3.3964634322
Li          1.9204060434        6.7530150545        3.7201294149
Li          5.6947084869        9.3662343481       -2.0600768066
Li          4.3324448963        7.4507088173        6.5813140985
Li         -3.8899047907       -5.9446811962        4.2665883269
Li          3.8973030403        6.1753978492       -2.1604332355
Li         -6.5331437846        2.3933640155       -8.9819722080
Li          1.3153712085        1.2154250999        0.9319932642
Li          5.0087328695       -5.4962607631       -7.5127945721
Li         -1.4620309635        0.9190473070       -8.1050622950
Li          2.6403919640       -3.8373930697      -10.1656572411
Li          5.6703988407        2.8584291913       -3.0536149512
Li          1.9733036460        2.4854319274       -8.4353186842
Li         -7.2163648963       -1.0633650127      -10.3808376142
Li          4.4387165033       -9.8417516695        5.6991166604
Li         -6.4797214053       -2.3484123585       -1.4607599932
Li         -7.1663198023       -3.8413932089        7.9310514308
Li         -8.1609690468        3.9786316924        2.0678720550
Li          8.6469528640       -4.6076210601        2.0509140331
Li          3.0131461748       -0.5795048565       -2.2933687419
Li          1.8601662980       -1.1714493520       10.3346987201
Li         -7.2215699657        3.7114653618        5.8387285956
Li          3.1343834771       -8.3858491671       -5.8034641884
Li         -5.1869707400       -7.1782470514        7.5080409019
Li         -3.5385781239       -0.0537145341        6.2288034545
Li          2.4482293833       -6.5648462804        0.3813651430
Li          3.2381229685        3.5709304666      -11.7297122368
Li          2.7611648652       -3.3633117133        5.5515578293
Li         -6.4178638147       -8.9127214596       -1.9553380835
Li          1.6473338881       -4.7465185340        8.9293057476
Li         -0.7298917271        4.4262646588       -6.6521974628
Li         -0.1831272885        9.6572634908        2.6491075625
Li         -3.0794336911        4.0136910882       -9.6028065464
Li          3.7273943750       -9.0289988514       -2.0077363976
Li          5.7362259690       -6.2507370317       -3.8023029977
Li         -4.8583190444       -3.2560000043       -4.8781394027
Li         -5.5972872778        6.4630526697        3.6550545659
Li          4.2701304143        0.7647285554       -5.6895633225
Li          0.8394589951        9.1535985288        6.3494676069
Li          0.7479725296       -0.4713624380        4.1815291363
Li         -1.4714532463       -3.1603819919       10.5978168371
Li          2.5910369098       10.4574604790        0.1344349152
Li         -8.4053607460       -0.1760659950       -6.8075370751
Li         -1.0356265950        9.9086701261       -1.1198618975
Li          3.1147078889       -1.7147279258        1.4821201139
Li          5.1534171999        0.8414717199        9.8596529110
