223

Li         -0.8231320060      -10.5177275855       -3.1619515015
Li          4.9294258597       -7.2780292609        5.8407875120
Li         -4.7324340231       -6.0166901300       -8.0139025103
Li         10.8618110756        0.2713291286        4.3055478764
Li          7.6096225696        4.3458616108       -5.6611316408
Li         -1.0124185655        1.4764560060       -1.1477245930
Li         -3.4105032313       -4.3127881895       -0.5186297239
Li          2.3716857905        0.5803720386        4.2540022038
Li          4.5683409689        0.8278860609       -1.4830900190
Li         -7.0572440953        8.3945169019        4.0344778483
Li          1.0942116208        3.7745191443        2.8767976525
Li          0.6141537576       -9.6392655161       -6.4851743545
Li         -1.5515789519       10.5722360439       -4.0279026166
Li          5.0889959801       -4.1667225659        3.8186109917
Li         10.0752155513        3.5829184309       -2.7899963390
Li          1.7797877047       -5.9843692017        4.3487742382
Li         -6.7115466498        7.0835392572        7.6166051221
Li          4.6850777934        2.0056414917       -6.4433824896
Li         -2.9188521748       -0.4544145816      -11.4416990558
Li          6.1613455329       -0.3532154112        9.1979662878
Li          8.2401637514       -7.3263443001       -1.1174519971
Li        -10.5097092333        4.3840298341       -1.5771467397
Li         -7.2222962587       -5.0090674093        6.6603034655
Li          0.9145394682        6.9483142508        0.8640295632
Li          1.4573895606      -10.9543167996       -0.1093242678
Li          6.6365308390       -7.3916717243        2.3804103597
Li         -8.0384676329        3.6034989889       -7.2194422012
Li          3.8633441670       -2.7603817793       -0.8768557137
Li         -2.0898441553       -3.6487520666       -7.0574459135
Li          2.7659649308       -7.8339416491       -9.0943343805
Li         -6.2320611638        1.1829605235       10.6298651938
Li         -1.5379734406       -7.7050525790        4.7798010179
Li         -2.7359713176        2.0733109328       11.9148551108
Li         -2.7316858309       10.7292688124       -0.3304343968
Li          1.8048274731        4.3389329841        6.6154300403
Li          3.3197133446       -7.4184363934       -5.4253489520
Li          7.3564110036        1.1507555418       -3.6586892045
Li         -6.8814343136       -7.4822896985        3.7360755403
Li          8.2708808613       -5.4057222094        5.2652270319
Li          2.1117314500        4.7964965181       -6.1158044397
Li         -0.1211526092        6.9229379201        4.5220650187
Li         -4.7312126538        5.2193056618       -8.2127534581
Li         -6.9874872594        0.5281114635       -2.9644798686
Li          3.3434802669        1.3537056809       11.2963808211
Li         -1.8651614865        4.8871903927        7.4428932292
Li        -10.1844665662        0.5627970261       -0.8261883959
Li         -5.9399118426       -6.8194907928       -1.4614251876
Li          8.2044611416       -4.1143643144       -8.2151999777
Li         -3.8543080957       -0.7577349611       -1.4721169876
Li         -7.0978474301        7.1558899636       -5.8811598714
Li          7.9026992130       -0.5465999796       -0.2186143959
Li         -5.2009775717       -2.2204908550       -8.7669208234
Li          8.8741204547       -1.9453295476        6.9187837838
Li          8.2669050854       -2.2344641303        3.2541271676
Li         10.2108630969        4.0084439809        3.9805704021
Li         -5.3658888302        3.9729855548        6.1793615729
Li        -10.2027394081        1.7143757649        5.7506444227
Li         -4.7823141076        4.6568584365        9.8797296445
Li         -1.1529367345        1.1225757809        2.3815528652
Li         -5.5722834497        1.5673670880       -9.4140765774
Li         -2.4314910611      -10.5382641414        0.3277912762
Li         -6.8058442804       -1.9696266644        4.3837415889
Li          4.7199950746        4.0685851571       -3.2628367830
Li         -9.6793362527       -3.2349244680       -0.1002447105
Li          6.8861847853       -4.1568839031        0.4153276442
Li          5.6016550740       -3.8776764840        7.5993041323
Li        -10.0957116806        1.8585813426       -4.4450406564
Li         -4.9571197795        9.1000388743       -3.1485510385
Li         -3.9083267855       -1.9823845067        6.8295146809
Li          0.6081668928        7.5904806313        8.2298242878
Li         -7.3202793733        4.2145906395       -3.6373893728
Li          1.7137228201       -7.8247898642       -2.1593802232
Li         -8.2770202118        7.4955996792       -2.2555689270
Li         -9.0238905686       -6.9702144432        0.6238730061
Li         -0.5317290689        7.3056941329       -5.5016301240
Li          5.1476657455       -5.8965300041       -2.4948421741
Li         10.0628086956       -2.4904607296       -5.2814684358
Li         -0.9606415628       -1.8448070078        0.4429082106
Li         -8.2614996541        3.6892697854        8.4786754628
Li         -4.6866088577      -10.0409769047       -2.7246701455
Li          5.5724388517        3.4194163755        8.8808091734
Li         -4.5737073986       -1.5425804083       -5.1164941663
Li         -1.7326615716        0.7450867582       -4.4942460143
Li         -9.1542532994       -5.6854843290       -3.0373657792
Li          4.0604867043       -1.0180033269       -4.5038079579
Li          1.5537689509       -9.0781938886        6.3488289103
Li          1.9548921531       -2.8807621880        2.3402879967
Li          1.1503895923        1.4715730620       -7.8447224211
Li         -4.3397423061        1.9004297672        1.1299151685
Li         -2.4600685364        4.1991073217        3.8604902169
Li         -0.5178268737       -4.1407110456       10.3091803147
Li         -6.9938374360       -0.7232850340        0.6521317129
Li          5.0261817270        5.0329934520       -8.4986436082
Li          2.0404997876        6.7661051236       -2.8101035952
Li         -2.2173314671        3.1997764562      -10.3026419214
Li          4.4069201870        2.8436872352        1.7751138465
Li        -10.4908427074        3.0398339588        2.0973852982
Li          7.0774324280       -0.9043365008       -6.6769150096
Li          2.2270586493       -4.2136673590       -3.8849744872
Li         -7.7199840401       -0.1904864924       -6.6550173446
Li         -4.6373583952       -7.9058106621        6.7656126648
Li          0.0847006057       -0.5998591000       11.8209212071
Li          6.9769401206       -2.5781885057       -3.1156713144
Li          6.6220738988       -1.2812032292      -10.3315645318
Li         -0.4113592604       -1.1376267137        8.1808675205
Li          2.1657540285        9.8424357680       -4.8771285214
Li          1.9348367012        0.4055081934        0.7837685340
Li         -2.8580381512        7.6224809916        1.7733394658
Li         -8.8220781144        6.3922943922        1.2602439350
Li          4.7563797179       -4.6316406964       -9.8262165272
Li          2.8649269941       -2.2639996184        9.8116427318
Li          5.6463706817       -0.6565407783        5.5725520908
Li         -3.9650012778       10.6540024460        3.3750095647
Li          4.5430817265        6.1034530501       -0.0111885334
Li          0.4588207916       -4.7810813578       -0.8286946495
Li         -1.2183508929        5.5239326590       11.0105688852
Li         -2.4128279998        0.1914298253       -7.9352729565
Li         -6.4404016540       -4.4309848848        1.5010834681
Li          9.9698632495       -5.4622669646        1.8076135732
Li          3.6224410658       -1.4026592862       -8.1555930290
Li         -6.2816659925       -9.8256868509        0.7666110969
Li         -1.4886900193        3.7801859536       -6.8040494935
Li          6.3923496934       -9.0209153941       -4.0858476623
Li          8.3088454184        1.8193564148        6.7045380987
Li         -4.0087761055       -4.9416032970        8.9320744312
Li          7.6335979929        1.5506333822        3.0138175910
Li          2.5011187975        5.0029656265       10.2595352304
Li          4.9426976621        7.1898279120       -5.3124187908
Li          4.7214439519        9.2168625968       -2.0347145897
Li          8.3021381380       -5.7977566753       -4.6871142140
Li         -1.2044594266       -7.5744526733        8.5635831183
Li         -8.4781993320       -9.3887237994       -2.2791306932
Li         -5.1229325028        5.9869203117       -0.9337578977
Li         -4.8834949860        2.2218168024       -5.8601232083
Li          4.8658550676       -9.2090031193       -0.6002172562
Li          7.4738262707        6.4864926611       -2.4477756928
Li         10.6148888056        1.9572681229        0.7530278899
Li         -0.4308332381       10.3074407516       -7.6677113478
Li          3.1133807290       -1.7661437782      -11.7862087328
Li         -0.4420549588       -6.3768197485       -4.9161026887
Li         -6.7278194730       -7.7659607698       -5.1888376476
Li         -8.7069740628        5.0888658420        4.9001587822
Li         -0.1571021453       10.1677183536        2.4891995783
Li          1.0266282510       10.0836753519       -1.1958667351
Li         -3.9823729191        0.8891378383        4.6837824393
Li          0.1006555522       -1.8995826273       -9.5847737529
Li         -5.6605167601        5.2038373165        2.5943504241
Li         -0.7651711217        4.3466507087       -3.3198939371
Li          1.4628888673        4.4746219001       -9.8628921983
Li         -6.5227204625       -3.1902854959       -2.2620581485
Li         -1.8481326200        4.5298741636        0.3496320349
Li          7.6462015942        5.5402243706        6.3736587201
Li        -10.0438146294       -0.7601309680        2.8544962104
Li          3.4727786087       -6.0500569455        0.9027701366
Li         -1.3536727750        6.8110876583       -9.0547102407
Li         -7.4555262657        3.1043791667       -0.1212811735
Li          4.1261945312        1.6756298348      -10.2309101407
Li          2.3342490532        7.7982296187       -8.1386615285
Li          2.4259547442        9.4583758574        5.3242096422
Li         -3.7584815990        8.7541733562       -6.7697233054
Li         -0.1959162744      -10.8690284308        3.3983103333
Li          1.1269052829       -1.0972579094       -2.3277851158
Li         -3.7482176471       -7.2759042837        1.6648529050
Li         11.5020187699       -3.4436944298        4.5899516436
Li         -2.5884804848       -4.2069330887      -10.7019232146
Li         11.2137866512       -1.8080324355        1.0911675356
Li          3.0217898749      -10.8140294604       -3.6831825984
Li         -1.0088458419       -4.5409964079        6.6026584599
Li          6.9713878077        5.3278248082        2.7557229032
Li         -6.1221826032        9.1577636361        0.5152992333
Li         -3.0600690525       -8.7210700440       -5.8322985295
Li         -4.1351052094       -5.3747000131       -4.3452441412
Li          6.3135883888       -7.3872376573       -7.6028426938
Li          6.1542525814        8.6044587546        4.4996375531
Li         -0.5674897144        1.7376226781        5.9367779908
Li          3.5975952055        9.4346902931        1.6631214266
Li          0.0861788423       -7.8396551970        1.2878886070
Li          1.1631738438       -5.0606450630      -11.1924164666
Li          7.2280993026        8.4989988130        0.8104835407
Li         -1.3451316271       10.0478982927        6.1100228399
Li          1.7062089262       -4.6633222367       -7.5462177561
Li          2.3938524032       -2.6361670760        6.0976473993
Li          0.6155320836        1.1335005625      -11.5623340118
Li         -0.8685721004       -1.6687151257        4.4922900411
Li         -1.2529308340       -4.7240273765        2.6024465211
Li          3.5283249257        6.2432003377        3.7157829356
Li         10.7384941759       -0.1783487252       -2.4391088684
Li          9.8595347245        5.6830404116        0.4638118667
Li         -1.0238508712       -6.9831852378       -8.6423489047
Li          1.8632498630        3.6736427149       -0.7933891290
Li         -3.3868343149        1.4791116564        8.3127503530
Li         -6.8171843046       -2.3225032022        9.2018805271
Li         -9.6750540357       -1.9152780801       -3.7560717932
Li         -4.0376863384      -10.2639469238        3.8109327035
Li          4.3127119840        6.8439162184        7.4049654190
Li          5.0736006504       -0.9083041448        1.9834359341
Li          7.5941880096        2.1287346156       -8.7594253521
Li          0.6412157509       -1.5151240618       -5.9245544496
Li          3.2453011051       -9.2164192246        2.9069459147
Li         -3.7880074328        7.3589394386        5.3063517984
Li          5.2103176319       -4.1964193156       -6.0702177479
Li         -7.2881479920        1.8301860677        3.4534691913
Li          4.9960282783        3.1274700723        5.3122047938
Li         -3.1768781358        8.0399182710        8.8891134627
Li         -9.4608244921       -4.5031391160        3.5922276174
Li         -4.1333658808        2.8339475749       -2.3543109420
Li          2.9342951194        0.9002610278        7.7456603296
Li         -9.6639187238       -1.9920912366        6.5772458024
Li          1.7706698465        1.8827400059       -4.0783197975
Li         -4.2280419497       -4.8736233174        4.6185759482
Li          7.2390859673        3.2401621751       -0.4721643313
Li         -7.2760280568       -3.9884185635       -5.9578840301
Li         -1.7284044852        7.5438099122       -1.8625200911
Li         -1.5978684866       -3.0523658457       -3.3825712399
Li         -3.8929357202       -1.8291798661        2.3572750179
Li         -3.9349072535        5.7734575436       -4.5763702195
Li         -2.1252467781       -7.4098978137       -1.8376337305
Li          2.2310788306       -5.7558895543        8.1617011845
Li         10.1096814072        1.3236448207       -5.9733720898
Li         10.0340798350       -3.9690901558       -1.7343076516
Li         -3.3803437825       -1.5013313489       10.5845895178
Li          0.0913051639        2.3453197904        9.5471978298
Li         -6.8804915496        0.5953905734        6.9974344669
