245

Li          3.1165344226       10.6267307753        5.4098550543
Li         -1.1412036273       -4.8298185769       -5.7435036174
Li         -7.4528012315       -3.4432273575       -5.9598786629
Li          2.0905984582        1.7025464258      -11.1664261077
Li          6.2859297951       11.0729202939       -0.4832878065
Li          1.7434895786        0.8020025363        4.4925641109
Li         -5.1039769594       -4.0067002990        0.1797904486
Li         -4.5305092788       -7.2383437244        2.5444246023
Li         -0.3545886987        4.5203080447      -10.1769307349
Li          3.3360433720        4.6136464951       -8.9901093375
Li         -6.6006820677        6.0112392070       -2.9939376869
Li          9.2517234285        3.8380527101       -4.5580498328
Li          0.8449423703        6.3760761098        1.2846461199
Li          5.5777539495        4.8624815993       -4.1183037992
Li          1.0313052323       -9.8165806097       -2.1591177334
Li         -4.5544326292      -10.6265975373       -2.6620635399
Li         -6.3690452955       -4.0370531161        3.6846669482
Li          7.9049894796       -6.7047495790        5.4807318144
Li         -9.1491537131        8.2173177518        1.0394995243
Li          6.1914120329       -1.4919678354        0.7515223376
Li         -2.4127910203        5.0574429661        0.4036698396
Li        -10.8365500653       -2.0898400782       -5.4506167381
Li        -12.0987303386        2.7528201869        0.4847780625
Li        -10.2677516699        1.3940285490        3.6458920126
Li         -3.9847847275        5.3028490805        3.7872574728
Li         -4.6840453354       -5.8477976742       -4.7853434490
Li         -7.7156274468       -3.7576601268        7.1391997482
Li          2.5139423641       -3.8999073744       -6.5585974153
Li          2.7862777246       11.4727435097       -1.9984711525
Li         -6.1402740431       -1.2695784806        9.6270055272
Li          5.9153737001       -9.7531112438        4.6775222723
Li          8.3253229519       -5.8927503584       -3.9525744721
Li         -8.9463201241       -1.0308058075       -8.6243891017
Li          4.9062124562       -6.9538879703        2.4104764218
Li         -8.2336788023       -1.1752349351       -2.9218091235
Li          3.2616613872       -0.7892432915       -8.6703494197
Li         10.4858323022       -6.5643470120       -0.7739482986
Li          6.7281752475        1.3009432657       -3.4025784389
Li          0.1405115168       -5.1775703960       -9.2620416917
Li         -7.3140104094       -9.3641661884        3.4332021743
Li          7.6355203340       -2.3486450504       -2.6233337983
Li          8.0794194218        0.9565266456       -6.8987598229
Li         -4.2833749958       -9.2058876922       -6.1945179211
Li         -9.8262543612       -2.4346459389        4.1694058523
Li          1.6165520958       -5.5432583039        2.8422814959
Li          8.0418659479        7.4179809106       -5.1942452239
Li         12.3022158443       -0.6391071429       -0.6608259122
Li          2.9607780249        1.8354659650       10.6288335206
Li          5.3063296152        0.8566163238        3.5812061343
Li         -8.9638678410        5.1988877840       -5.7891558521
Li         -4.9339669379       -2.5719246307       -3.3181019441
Li          5.5855250058       10.2369431951       -4.2302456876
Li         -4.2143395041       10.5182126437       -4.2988743620
Li         -4.8855044064       -7.3104263209       -1.2306616409
Li          2.0331674074       10.3881018239       -5.7163519957
Li         -8.2682801435        0.0607156351        6.7064611038
Li          1.3936502232       -8.0928484515        8.7478956415
Li         -0.0704019756       -2.5161965737        4.1139686800
Li        -11.1003516594       -3.5080369076       -1.9579155601
Li         -5.3403447241        5.6927309650        7.2571395288
Li         -4.0077801254        8.7604819055        5.2470860251
Li          5.5811611948        4.4847448592        5.1859086373
Li          4.7817018074       -4.7148309191       -3.5433566991
Li          4.5064196642        7.4969965287       -6.6680215072
Li          2.7321889187      -11.7291011877        3.8725134926
Li          0.8243292021        2.0143031892       -7.7110136667
Li         -7.1471646559       -6.8476847199       -7.3829533948
Li         -0.6341249665       10.3215325516        6.1712819869
Li          4.3098692114        4.9518567288        8.7503729096
Li         -4.2180897306       -4.4617936603        8.6447385754
Li          4.2075296813        1.4689859004        7.1385301683
Li        -11.7618600781       -1.0906436990        1.0759903940
Li         11.2148525713        0.2320424953        5.9053949442
Li         -9.2163246857       -6.2172869665        4.5839299422
Li         -7.2160626538        3.5100546823        2.6809486950
Li          2.8404275360        7.8608826357       -3.2733351751
Li         11.1386567742       -3.4878617055       -2.9629747796
Li          6.9500715344       -4.4294286354        8.4003229567
Li         -8.4460452145       -2.6272028958        0.6304782967
Li         -0.4629338161        2.2676067157       -4.2323167698
Li        -10.3298758559       -7.2433691374       -1.4633852686
Li          0.0612807707        5.5538972173       -2.4278163645
Li         -2.5658384587        8.3613810996        1.7748821553
Li          3.5748367205        8.7234130604        0.4282417268
Li          0.6385376047       -2.8627394178        0.5282247307
Li         10.2812290970        0.1665067404       -3.8162793036
Li         11.4277636859        3.0608356101       -1.4773139941
Li         -6.3668190395       -3.7209315910       -9.5052915030
Li         -8.5778070063        3.8817529147        6.1135775226
Li          0.8329164643       -6.3198733824       -0.7877678135
Li         -4.2392189685        7.1156289767       -5.6484187237
Li         -0.6053602409        3.5693892388        3.2576597929
Li         -6.6858907138        0.1148517932       -6.1021870226
Li         -0.6373255101       -8.3082042112       -7.0831703294
Li          3.7968684839       -4.2201503726      -10.0026176922
Li         -0.6441158987        6.9314886693        4.7311090618
Li          0.7012522524        9.8182739397        2.7101711836
Li          8.4442134619        6.8704381138        4.3384662342
Li          5.9991140928        9.6203675213        3.1681380926
Li        -10.1001771108       -5.8352872914       -4.9993265573
Li          2.0156871384        4.9263228993       -5.4750362856
Li          5.3292830518       -8.1950563949       -4.8597937315
Li          8.2483232153       -8.2784627661        1.9251713727
Li          8.8482875213        0.7105332970       -0.3281630880
Li         -7.6075740900       -9.7301142551       -0.4068250292
Li         -3.9819508931       -2.5230483972       -6.9388104468
Li         -2.2159889744        1.8559877600       -1.0047244020
Li         -5.2595716578       -0.0408062517       -9.5622619521
Li        -10.2077430208        1.5517842601       -5.9596623060
Li         -5.9051638844       10.0386729790        2.1380069643
Li          6.7066415730        2.1344623436        9.7590189895
Li         -1.5480097819        4.7816292205       -6.6442646144
Li          7.8285561433        1.7118233232        6.2041378744
Li          6.1673090850       -1.7414018205        6.0035775496
Li          8.7244383300       -0.6194001892        3.3085993195
Li         -2.5506462996       11.7187695454        3.1516642495
Li          7.5497495483       -8.9665510227       -1.7566337377
Li         12.1333148176       -2.0371956674        2.9888996917
Li         -1.3503022786      -11.3806409099       -4.7691761690
Li         -7.6307666375       -4.9166007204       -2.4046279553
Li          0.9052688007       -1.9833253119      -11.2833705377
Li        -11.5269344801        0.3065521224       -2.4852480480
Li         -3.7720217867      -10.0451042559        4.9272925753
Li         -6.5189319050        6.3722122974       -8.4203661627
Li          1.8355401454        7.6974558586        7.5439028928
Li         -0.8769049631        8.2023156577       -4.8110320535
Li          3.0975755896        2.3359323320       -3.0275503192
Li          0.9086103400        7.4327253132       -7.9838287261
Li         10.2776452009        6.7527235416       -2.1645250679
Li          3.1753040586        7.1882313509        3.9947183326
Li         -2.9134390303       -4.7533508359        5.1372024855
Li         -1.6218931075       -1.3798857196       -4.3513846149
Li          3.2183305090        3.6928406520        2.5799458444
Li         -0.1553090910      -10.5720123223        6.2489041845
Li        -10.4920673512        5.1795482108        3.0281769111
Li         -3.5173869176       -1.8561834037        2.7401589671
Li          5.7388295535        1.7289700620       -9.8657181406
Li         -2.7749951017        7.2851305502       -9.0196118081
Li          5.2316337377      -10.5119881516        1.0444348946
Li          6.1058926097       -5.0961993389       -7.0444441358
Li         10.5579277677       -5.5297696012        2.9217836635
Li          7.8997574373        4.3161228802       -1.0666863113
Li          1.9677125251       -0.4839051338       -5.2391445858
Li         -7.8262921682       -6.3781002415        1.1295018661
Li          1.2586763525       -3.5220569264       -3.0845644249
Li          6.9324189001        4.5943881097       -7.5689274670
Li         -7.7887202273        2.7087005063       -8.6697363151
Li         -3.3433480033        7.8156455894       -1.9473684105
Li         11.5111753172        1.6694575977        2.2238175869
Li          4.1551848450       -1.1885256710       -2.2406893697
Li         -2.4409894618       -1.6514468609       -0.7552568422
Li          8.0614823825        5.1374492071        7.7735067289
Li         -5.5993696583        3.2874326507       -0.6690778454
Li         -3.9211432868        1.8740015550        2.2748324954
Li          2.4679759197       -1.9643169355        6.9008016181
Li          4.4596312825        2.0472616746       -6.4295494976
Li         -9.9256815215        7.5295626580       -2.7135274839
Li         -1.8699778810       -8.0536288605       -3.5330196451
Li         -0.0460352295       12.5358140084        0.3151946105
Li          6.0530029886        6.0888387927        1.6993825537
Li          2.5667212709       -8.2748633444        5.2050900047
Li          2.2481554437      -10.3748132351       -5.6421943039
Li         -0.0110993268        9.0390036952       -1.0297964115
Li          1.2025450964       -1.6244572991       10.4216587138
Li          1.8034608367       -9.0303345060        1.5282751555
Li         -0.8912865819      -11.4205293009        2.6319703398
Li          0.6948601580       -0.1695290625       -1.8627921671
Li         -0.6045125642       -5.0222937991        9.9394802330
Li        -11.3385608126        3.9807043621       -3.1153657934
Li          5.4932148178       -1.5831337836       -5.6727703688
Li         -5.7858858471       -6.9681189856        6.1068561057
Li          1.7390275774       -6.9333019088       -4.3894050469
Li          4.1336265909       -7.7040342067       -1.2860602775
Li         -3.4453456237       11.2235193349       -0.5850829914
Li          3.7098586320        5.2712558560       -0.9310461829
Li          6.7802415279       -1.9184181510       -9.1125202865
Li          7.0825174627       -5.4762937917       -0.4110689008
Li         -1.9639581514        0.5636379778        5.2075211056
Li          0.4774144410        1.1852913728        7.9452328212
Li          3.4503567583       12.1496473893        1.8280514103
Li         -1.7743278626       -8.6070862683        0.1981588549
Li          0.5171557523        4.6496752538        9.5487794978
Li          3.8393971604       -4.1473908586        0.0213768252
Li          4.4288041249       -5.1155132125        5.6928201180
Li         -5.6432708990       -0.2998940380       -0.2826369428
Li         -6.9115727635       -0.2652201317        3.2269556217
Li         -1.5842081070        0.8388421133      -10.4339902459
Li          1.0061572771        2.9978364340       -0.1151778566
Li         -0.6730390209        0.2806393696        1.8245010755
Li         -1.5814299071      -12.1485603324       -1.0078617725
Li         -4.4258837606        0.9535963970       -3.5405630990
Li          5.3244608042        2.1420024382       -0.0499791978
Li          2.7976237335       -0.0034049711        1.0202075921
Li         -1.9177281316       -5.0376596923        1.5434060025
Li         -1.9627389086        3.9353938635        6.7192072082
Li          0.6533897345       -5.2984804902        6.4487553418
Li         -5.5287526815        3.6560179993       -5.9795709208
Li         10.5930256871        3.9240558761        5.1094132903
Li         -4.8442638747       -1.5915157825        6.1909905362
Li         -8.8831544229        1.1274389287        0.1391488517
Li         -1.9579992716        7.3298311363        8.2048417651
Li         -0.8132838522        1.5236119605       11.3761722261
Li          2.0440591305      -12.4777060501        0.2016010127
Li          4.4556149399      -11.1697830516       -2.5961100159
Li         -1.3053710038       -2.2261247353        7.5908149484
Li          9.0081454863       -2.7176386966       -6.0704171444
Li          5.6032067411        7.9367744808        6.6747347643
Li         -5.8166060881        6.6395108609        0.7330045773
Li          3.0384250637       -7.3358281699       -7.8625200762
Li         -7.5085426103        8.7382878639       -5.3985354781
Li         -3.2647281084        0.8799193814        8.6463452928
Li         -1.0180406389       -7.8285854389        3.9012248945
Li         -7.4083318818       -8.3542348341       -3.9193509798
Li         -6.7590735640        9.5042739566       -1.6413786117
Li         -4.0338557766        3.6583743329       -9.4174891616
Li         -2.8546188288        1.1408694524       -6.9002421563
Li         -0.3804072416       -1.6717151732       -7.8378060532
Li        -11.2101874748       -4.9108907907        1.5621608839
Li         -6.5683931750        2.5441894964        9.1250629904
Li         -3.2605259616        4.2713669403       10.1614287381
Li         -2.5899761592       -1.9007626477       11.0285454194
Li         -2.7447356886       -2.8641243008      -10.4399022587
Li         -7.3141606282        7.0234195743        4.1992360757
Li         -3.5237093806       -6.0590275969       -8.3821217883
Li         -9.0161159527        4.7869990819       -0.3619014370
Li          3.2079401165       -4.7601956607        9.2785513809
Li          7.0915228446       -4.0877026405        3.0919689645
Li          4.9818782983       -1.3172594793        9.6211409746
Li          8.8009115072        8.5373116107        0.8853685571
Li          8.6772706405       -0.9610922198        8.6336839407
Li         -4.4514076171      -10.8299061392        1.2440853589
Li         -5.2785133704        2.2085562744        5.6977195592
Li         -2.2203970973       -7.5856879566        7.5122725224
Li          3.5976817042       -2.5313791309        3.3536299244
Li          6.4845154721        7.6103584442       -1.8123267527
Li         -3.2308543743        4.4760903728       -3.3170505167
Li         -7.9425104487        2.4513411543       -3.2763952829
Li          1.8093828145        4.2586258528        6.0437190464
Li          9.6410717568       -2.9836683026        0.4219266458
Li          5.1508538530       -7.8560944397        7.9554196813
Li         -0.7587938778       11.6882931317       -3.3826253792
Li         -2.1359664359       -4.8186845958       -2.1579762634
Li          7.9710211227        3.0799318738        2.5811429755
Li         10.5945867880        5.3265403409        1.4637719218
Li          9.6581969337       -3.2760559825        5.8075741548
