259

Li         -7.8342532050       -7.0443068719       -4.9408697304
Li         1.9776710105        8.5846638785       -2.0225861000
Li        -9.3741957941        8.0941616584       -0.1907322822
Li         5.3945548155       -2.1308699707        2.9362872710
Li         1.5334699472        0.6039901911       -5.3540813115
Li         3.0729287441        8.2202632115        1.6539820528
Li        10.5682390467        2.1782365670        5.0141793900
Li         6.0715447300        0.3834535360        9.1473157824
Li         3.5085392751        1.3480709963      -12.3993225542
Li        -0.0683231429        6.9123545339       -4.8332006557
Li        -1.8604552697       -7.4234947268        8.1379705062
Li         8.1898064403       -9.2659767331       -0.2679790628
Li        10.8667715045       -5.2150928047        4.1441606201
Li        -4.8664316494       -1.8622928253        6.1183982895
Li        11.3412251253        4.6436425310        2.0722359089
Li         7.3142334645       -3.4264941197       -7.7399532096
Li         7.4769224672        9.2274559059        4.7218037608
Li         9.1487542639       -5.7963892622       -5.3144998406
Li        -6.5074303694        4.2430828304        8.0541800224
Li        11.4561017535       -1.4411371552        4.6037511965
Li        -8.2326008539        2.5156525945       -1.9632433751
Li        -2.6530438687       -4.3489757237       10.3369709656
Li        -7.4863736508        0.5320404677        7.5097177932
Li        -7.6907883246       -8.6234453246       -1.0474994502
Li        -0.3103583876       -6.3665570516        0.9060355914
Li         3.6232189510        2.0764439647       -2.5581027644
Li        -2.8973116068       -2.1307842234       -6.6669487275
Li        -4.6498456662      -10.7867446678       -0.5732745973
Li       -12.7756255556       -5.1244688437        0.8332805467
Li        -5.8405820274      -10.0963264614       -4.1849792589
Li         3.0013428273       11.5348012630        0.1938208354
Li        -6.5378136027       -2.2341756647       -5.5134673242
Li        -5.7753808786        9.9283355360        4.6047441386
Li         1.7805100917       11.8805787265       -3.4737413766
Li        -9.8828113212       -7.2990372100        1.7442399693
Li        -6.7506620236        7.2273647652        2.2375418007
Li       -12.1150022187       -1.4220471949        1.6105764744
Li         0.7440957565        2.3375376388        4.2425227374
Li       -10.5952308370       -4.1660612562        3.8567518744
Li         0.2036476831        3.5371973561       -3.3593330991
Li        -4.5399427478       -5.4220271957       -5.4182097366
Li        -4.1053205863        8.4504049868       -0.2540977708
Li         9.6887794082        8.1152433471        1.8828000842
Li        10.9439868673       -3.8123439245        7.6295889616
Li        -9.9020218471       -3.9064822777       -5.0291541451
Li       -12.1668849333       -2.8272832514       -2.0613356378
Li         1.7873316285       -8.1628161618        7.0605587354
Li         2.5607639989      -11.2031335473        4.7493296935
Li        -3.4836020342      -11.3009619596       -7.0869662421
Li       -11.6647397107        0.9575617654       -1.3322542991
Li         5.3655252218        3.7027855393        0.2268780741
Li        -0.4934606989       -0.1633321184        1.9192311659
Li         5.4282700742       -1.0381175175      -10.1143107501
Li        -2.9184082738        2.2105637590        3.2074063575
Li        -0.2274260824       -9.8395154789        2.2681943361
Li         8.6859510559        5.3021942600       -0.3822982180
Li         5.3366810425       -3.6293489488       -0.5512970905
Li         6.7836492622        3.8584092349       -3.2440917488
Li        -1.2415557783        1.6872946696       11.3538606303
Li       -11.3824496706        2.3368126703        2.3224709065
Li        -5.3760220469        1.6949036153        0.4302173114
Li         6.2656159796       -3.7395544302       -4.1860754224
Li         7.1091726882        0.6179573670        5.5208511745
Li         2.3710469148      -12.0942439269        0.9601110433
Li       -11.0928735630        3.2638638197       -4.3229187103
Li         5.3902637301       -8.8223045945        5.8268047739
Li         9.9595529911        5.6809574526       -3.8834938146
Li         1.1793869186       -7.8259050582       -3.9460946725
Li        -0.3960899765        5.2568215678        2.1931817727
Li        -6.3432719897        4.1601177549       -4.8078255168
Li        -1.3492904140       -9.1316447605       -1.3311784536
Li       -11.1734533279        1.8116391779       -7.9127029779
Li         2.7441577833       -4.6510851572       -5.3345494856
Li        -9.4191025510       -3.6512467808        0.3176578693
Li        -8.8734585154       -1.2124712596       -2.6039185032
Li         3.7387058623       -4.3139990975       -8.9442979395
Li         3.3966926167        5.4911307463       -4.0873039547
Li         3.8187715685       -2.5819935894       10.2159220881
Li         7.4922663299       -9.0803717573       -4.0901456964
Li         0.1929496577       -1.9241031377       11.3766095740
Li         4.1907929835       11.0511695549        3.8981575099
Li         5.6958152147        2.8125006442       -9.6358594030
Li         5.3011652545       10.3909478313        7.5553550445
Li         9.6919217442       -0.2850372729        7.8781663396
Li        -3.4805726765       -4.3874697890        0.3102310784
Li         5.6273153914       -6.7173690816       -6.5525344303
Li        -4.9786495884        1.4937670514       10.2921596494
Li         1.9993176411       -7.5378402292       -7.6490119115
Li         0.1918040265      -10.6294016701       -6.2017083890
Li        -9.0215406108        3.2907553196        5.2507620735
Li         3.1313428717        8.9121416236       -5.6038743022
Li         2.6615478842       -7.8581311833        3.3936272344
Li         0.5488425973        7.8289784790        4.4538487887
Li        -2.0825340271       10.2118294060        5.7492259357
Li         2.5145523207        0.9723901909       -8.8600193954
Li        -0.3862226557       -2.9321729422       -0.4258516110
Li         3.0963264790        4.8823138196        3.0319014849
Li        -4.1262920854       -4.9619170556        3.9749556366
Li        -8.2667911113       -3.1968665162        6.8035764907
Li         2.6404948946       -4.5881202794        2.0044920082
Li         5.4011820103       -6.9601520082        0.8370753889
Li        10.8474715889       -6.6335302103        0.6538591412
Li        -9.2168110095        6.4559067345       -3.7443741631
Li         7.9853766424        2.9781915746        2.6022946170
Li         1.8034304202       -1.8609319901      -11.2246156909
Li        10.8758851122       -8.0946052162       -2.8057920260
Li        -2.8096985356        4.5031659131        9.2272577135
Li        -6.6034232605       -5.8422158877        1.1322703729
Li        -0.6008302189        7.4646903471        8.0341617413
Li        -5.1299029910       -5.3831577504        7.5744865111
Li         8.1934089695       -7.8563799167        3.2815562755
Li        -8.3398761174        1.1686032133       -5.5667748583
Li         6.6409257584        0.0741267348       -3.7519289073
Li        -1.3847684048        6.1915218932       -1.3932113064
Li        -5.5804660749        0.3829968940       -3.1778962761
Li        -1.6904918767       -8.2431687421       -8.5821639740
Li        -0.8735125222       -5.3892300215       -6.3686695641
Li         5.4396606472       -5.4553162458        4.3902300739
Li        -3.9638702986        6.9591177816       -3.8204005194
Li        -0.4508473521        8.8433534951        0.8712809547
Li         4.6931485248        2.4370581315       -6.0868811935
Li         2.0879219401        2.1308720224        0.8043993390
Li        -2.5062374588        4.1201605749       -5.8785795963
Li         3.1425344645        7.5535070620        8.9258000086
Li        -3.5128951978       -7.9330536419        1.6456458546
Li        11.4570864182       -2.8480091536        1.0557948468
Li         9.8508776883        1.8790699102       -4.4721031775
Li         1.1712884473       -1.5576410793        7.8201202580
Li        -4.1256790917       10.4341504940       -5.2213217871
Li         6.4045694542        6.4799269521        2.4651813658
Li         1.2313963620        3.9858242650       -6.8908147291
Li        11.7793646653        0.9613326920        1.5223654491
Li         0.9550570203        4.6321805712       10.1748346036
Li        -3.1669407616       11.2111787160        2.1276735841
Li        -3.8349536494       -1.4290809012        2.5890157601
Li        -1.1704829191        1.1051464389       -7.8666547171
Li         2.2282154523        4.3701213806      -10.4408457174
Li        -3.7064590872       -2.9051285310       -3.0767210024
Li        -3.1006597991        7.6075342718        3.3854289162
Li        -3.8850487276        1.6211769964      -10.3451169027
Li         8.6034472926       -0.6161798832        2.2629122955
Li         2.6586813215       -1.3838574982        0.5955809057
Li         2.4268066894        1.0411271218       10.3233210921
Li         4.4283873814       -1.4062100423       -6.5628778234
Li         8.5412096560       -2.1102769499       -1.2919669130
Li        11.3365719289       -4.3122280608       -2.4681960024
Li         1.6350048945       10.3861048372        6.7604363048
Li        -0.2507608588      -13.3556456573        3.5187349388
Li        -6.7978259603        9.2793373931       -2.7479573739
Li        -4.8111031356        1.2121353523       -6.7586484677
Li        -3.7957953967        3.4383378523       -2.4454851985
Li         0.5671088384        0.2386955323       -1.8897148446
Li        -6.7499381565       -9.4189228692        2.5201936849
Li         0.9226962599        7.3710801792       -8.3887586044
Li        -7.5725246876        1.7338046311       -9.1939224617
Li        -7.5488094424       -6.3597425491        4.7217290692
Li        -7.9575283399        3.7970255773        1.6624693685
Li         2.0878263142       -1.2219979178        4.2447302581
Li         5.3891085623      -10.2925118149        2.2614389842
Li        -6.5763790753        7.6352024157       -6.2905499763
Li        -2.4342139203       -0.8901793030        8.8950657291
Li       -10.4819461874        6.0445882929        2.9278107063
Li        -3.9836741881        1.8565912573        6.7394679236
Li         6.5912823113        7.3482526172       -4.7961859644
Li        -8.7750021065        0.1274217334        1.0210966423
Li        -0.8975383748       -6.9782136792        4.5659093735
Li         1.9445589512       -4.6840851242        5.6710392915
Li        -1.7797384130        4.8365151151        5.6302759732
Li        -0.2547898260        2.0466909419        7.7993001439
Li         0.9954938223       -5.0741765704        9.2866606983
Li        -4.5692687021       -7.1862188793       -2.0101951678
Li         8.1898234195       -6.3253103503        6.7825929434
Li        -4.3219228320       -8.4512081569        5.3486726463
Li        -1.4575401316       -0.5262884243        5.3856372169
Li        -4.3296845746        7.2595637838        6.9650943508
Li         7.6845857824        0.4232256387       -7.3451828977
Li        -1.3107742204        2.7586502664       -0.0784128748
Li        -9.3859628376        9.6046051828        3.3808709128
Li        -1.3984509253       -5.6556801102       -2.6734373152
Li        -6.6307487201        5.7444805276       -1.3087230612
Li        -3.6651211630       -4.9660599844       -9.0323978297
Li         3.4224654411       -1.6984585089       -3.0089683101
Li        -6.1062450036       -1.9584852424       -0.2213196814
Li         2.1778955852       -4.9633155927       -1.6630020790
Li         7.4218402362       -3.2171183289        8.9845703045
Li         7.8511315036        4.2627889116       -6.7838843088
Li         0.0759068253       -5.0749195748       -9.9510383693
Li        -6.4402452635        0.9182897114        3.9217026212
Li       -10.4538657854       -6.3552664607       -2.0877302800
Li        -4.0156217313        4.9771229958        1.0600344483
Li         1.3292684123      -11.4118373413       -2.6502673702
Li         0.5286184332       11.4440418785        3.1966677252
Li         4.6332478796        3.9893377403        9.1177150576
Li         1.9181080696        4.9306714491        6.5954347365
Li        -2.4179929459      -11.9056623684       -3.5490884607
Li         3.3989277311        1.3755493785        6.7096486194
Li        -0.7408009536       -3.5461767673        3.2111492279
Li         4.6253327954       -5.7326296153        8.0952055522
Li        -1.6963964977       13.1519911272       -4.0708021285
Li         2.3054477576       -8.5388454473       -0.3220510773
Li         5.6857412375        4.1488503285        5.4678051782
Li        -0.1147988234       -2.5585224092       -4.1057535505
Li         4.7608028575       -7.0555394989       -2.8956154025
Li        -1.5100896358        4.5536175737       -9.4782568320
Li         5.3553902477        7.0277391571       -1.2173121921
Li         8.6414878436        8.7183477402       -1.8487568420
Li        -9.8945290225       -0.4345652696        4.6157492747
Li        -7.2162822810       -2.7772167371        3.2610812715
Li        -2.8275462856        7.5475388467       -7.4000947562
Li         0.8113716503       -2.2316503065       -7.6730863428
Li         4.5594408681        1.3754259647        3.1645953730
Li         9.5687856691       -1.9655916887       -4.9455316218
Li        -7.3616075885       -4.8356402393       -7.9607634948
Li        -7.9974299718        6.9618886888        5.7599437141
Li        -3.4170401192       -1.2547878572       12.4385681517
Li        -0.1792012880        1.4890604005      -11.4218606284
Li       -11.6495758390       -0.4862671983       -4.9758618358
Li        -0.5937787161       12.3922485894       -0.4325124696
Li         6.4153686255        9.9470444024        0.9999407149
Li         8.1083983148       -4.4002224650        1.7952548478
Li        -4.2328872690       11.9135965643       -1.5916600806
Li         4.4429867020        5.8980180855       -7.6747232116
Li        -1.4595700337        9.6711831890       -2.7473382799
Li        -1.9308806700       -1.7471451226      -10.2836865499
Li         5.2434474904       10.3661877490       -2.7110890044
Li        -9.7804859210       -9.8943887922       -3.7534399550
Li         5.7217351421        0.1314442798       -0.1420052202
Li        -2.8471752357       -0.3710372473       -0.8264467757
Li         3.8922814482       -9.9187855594       -5.2154218920
Li        -7.0648399412       -4.5824343141       -2.4713561349
Li        -8.9576682531        4.7530030928       -7.2191332778
Li        11.9464300529        7.0360192670       -0.9184009338
Li        -2.1067629092        0.6682620015       -4.3034738215
Li         4.7307037914       -2.2048144532        6.6303747582
Li         8.0543318437       -5.9000711751       -1.7356085154
Li         6.7929509966        6.8771821273        7.7842297836
Li         8.1576996875       -2.9047071441        5.3235561565
Li        -1.6719016234       -3.9752623713        6.7784974143
Li        -3.5026008158      -11.4202522442        3.0213605246
Li        -6.7938300465       10.7329424416        0.9067683025
Li        -5.8583217980       -2.2331700668        9.6694703938
Li        -5.4568621124        4.5599885297        4.5017302478
Li        -5.6411679716       -1.6110478122       -9.1777693235
Li         4.9629134038      -10.6470182171       -1.5930689419
Li        -9.2977348101       -1.5112297538       -7.9489988288
Li        -0.3851975352       10.3234323115       -6.2758770220
Li        11.7272004455       -0.4784967338       -2.0485700630
Li         9.1168262015        5.7475722053        4.9712384026
Li         2.0323645197        5.3238180326       -0.6229625638
Li        -1.0604872524      -10.4538142212        5.8747529805
Li        -5.4167320906       -8.1588369424       -7.6403886841
Li         4.1240638347        7.6549002897        5.3115898018
Li        11.9600746033        3.3380311423       -1.5412883767
Li         8.2827565584        3.3032566196        7.9068125931
Li       -10.8447968541        4.6778246644       -0.6863161678
Li        -2.5440812042       -8.4457404355       -4.9234095253
Li         8.8479007047        1.6573225282       -0.8395762522
Li        -5.2390936254        4.6768536340       -8.3850636272
Li        -1.3138582128      -12.6106720690       -0.0105188645
