260

Li        -10.3650977088       -5.3878560722       -8.0554728622
Li        -1.1820989024      -12.6108351297       -0.3824291025
Li        -4.9766355721        4.7937883150       -8.4066873696
Li         8.9323905305        1.7634939833       -0.4441422007
Li        -2.1039714714       -8.3031734972       -5.2276490138
Li       -10.8033734933        4.6580766993       -0.8417232021
Li        10.4053589908        2.1157748970        5.4473340570
Li        12.0455263729        3.4829803420       -1.0058170569
Li         5.0086710117       10.2298282506        8.0349814765
Li        -4.9982266037       -8.0055743515       -8.0428566284
Li        -1.1738756009      -10.6163264028        5.5533500181
Li         2.0285881915        5.3672498876       -0.3856373918
Li         8.9349779518        5.6819899005        5.4549677678
Li        11.8705177987       -0.3217704053       -1.6128862409
Li        -0.2409764805       10.4533849623       -5.9978710456
Li        -9.0292132850       -1.6141464089       -8.3079000052
Li         5.1793677351      -10.5888022506       -1.6814093857
Li        -5.2055282911       -1.4338002168       -9.4502520816
Li        -5.5811716735        4.4210786004        4.5014922027
Li        -6.1051275494       -2.5462793168        9.4447004034
Li        -6.8584092616       10.6617959099        0.9920051236
Li        -3.4955756435      -11.5051130778        2.5578641036
Li        -1.8320283352       -4.1694782704        6.6391855814
Li         8.0516949721       -2.9800176585        5.5642535910
Li         6.5175318320        6.7184238577        8.2195067454
Li         8.2349184978       -5.7687988727       -1.5651043293
Li         4.5653085815       -2.3564733488        6.7610233402
Li        -1.9416555509        0.7314771668       -4.3217647907
Li        11.9501674971        7.1606235567       -0.2906255001
Li        -8.7413696115        4.7358566400       -7.3497886490
Li       -10.4947555117       -6.0699169512       -2.6776704359
Li         4.2627010513       -9.7587243194       -5.3130803192
Li        -2.7795159530       -0.4130894751       -0.9090961914
Li         5.7969421496        0.2071630610        0.1026667413
Li        -7.8717895742       -7.0381438545       -5.5014148321
Li         5.2769539888       10.4769334108       -2.2408513980
Li        -1.4587616051       -1.5031222813      -10.3767723811
Li        -1.4287544798        9.6976309481       -2.5282494085
Li         4.6892941586        6.1270289238       -7.3229974770
Li        -4.2473931192       11.8980990645       -1.4119466963
Li         8.1447858466       -4.3717572842        2.0033532957
Li         6.3376203922        9.9749014594        1.5032102095
Li        -0.6454033778       12.3621980565       -0.1248535282
Li       -11.5535236674       -0.6170744587       -5.3242110853
Li         0.2649234448        1.7825882456      -11.3468930170
Li        -3.7654476661       -1.6283661466       12.3185286054
Li        -8.1716018639        6.7809470438        5.7410070556
Li        -6.7767495479       -4.6833584467       -8.3400711256
Li         7.6878836859       -3.1497057199       -7.5206712277
Li         4.4658390723        1.3426223856        3.3831456166
Li         1.1919862183       -2.0313173742       -7.6769983577
Li        -2.6217504190        7.6753846158       -7.2679798583
Li        -7.2633577128       -2.9016212636        2.9734051996
Li        -9.9762868773       -0.6093130996        4.4069998662
Li         6.7213335122        7.5190051704       -4.3381581058
Li         5.3630611945        7.1098181811       -0.8186400685
Li        -1.1883553577        4.7673970908       -9.3680777103
Li         5.0163431532       -6.9520118890       -2.8701712051
Li         0.1356379631       -2.4532020471       -4.1459375053
Li         5.4994719702        4.0519239126        5.7959186958
Li         2.4791591317       -8.5283632985       -0.4308481877
Li        -4.0197227026       10.4857745253       -5.0718294216
Li         4.4255847973       -5.9271082050        8.1229028284
Li        -0.7821389327       -3.6417500418        3.1159903959
Li         3.2064327931        1.2133811906        6.8936020310
Li        -2.1074597925      -11.7972398313       -3.9399463144
Li         1.7103713374        4.7628410215        6.8227225314
Li         4.3442632028        3.7704021457        9.4089686007
Li         0.3797681094       11.3377740306        3.5204993600
Li         1.5974005835      -11.3441699003       -2.8885156204
Li        -4.0687514964        4.8955240431        1.0968374002
Li       -12.7779172961       -4.3854228638       -5.3656802235
Li        -6.5204360724        0.7885239537        3.8135495959
Li         2.4306083752       -7.3175962492       -7.7334662223
Li         8.0897216394        4.5071221974       -6.3535827479
Li         7.1781002933       -3.4147246213        9.1822089261
Li         3.5993940866       -1.5783001181       -2.8942517271
Li        -6.0606034551       -2.0389976755       -0.4905780930
Li         5.4594661145       -3.5409353547       -0.4206265570
Li        -3.1368662915       -4.7738935801       -9.2159950067
Li        -6.5796243222        5.7508257715       -1.3395760625
Li        -1.1521214164       -5.5944968837       -2.8392412001
Li        -9.5078530271        9.4760147305        3.3722472157
Li        -1.3182770552        2.7246105402       -0.0189342505
Li         7.9942517649        0.6887064364       -7.0144145634
Li        -4.5498651728        7.0575089539        7.0597980628
Li        -1.5914756532       -0.6843045157        5.3490261314
Li        -4.4387355741       -8.6361305076        4.9481467538
Li         8.0455292606       -6.4469884010        6.9262514945
Li        -4.2824814312       -7.2091547882       -2.2253154901
Li         0.7513019053       -5.3315040281        9.2016542107
Li         0.6370477759        4.3586206810       10.3600408857
Li        -1.9504000295        4.6748271609        5.7422977590
Li         1.8242389194       -4.8246807568        5.6391730311
Li        -0.9688469270       -7.1049421794        4.3665702376
Li        -8.7721090158        0.0516871247        0.8671858672
Li         8.6613441221        8.8371155099       -1.2960143440
Li        -4.1629206838        1.6568009032        6.7103691651
Li        -9.3765480427        8.0523724746       -0.2467492066
Li        -2.6744466440       -1.1499720747        8.8195123309
Li        -6.4156385479        7.6528153874       -6.2714796158
Li         5.4187526473      -10.2889247580        2.1848337565
Li         1.9999295832       -1.3222345467        4.3093714516
Li        -7.9784894969        3.7020263924        1.5641785460
Li        -7.6213619726       -6.5504473976        4.2593971463
Li        -7.2446380234        1.7858500546       -9.3240394300
Li         1.1725761013        7.5800204465       -8.1298818348
Li        -6.7207135502       -9.4630369892        1.8487379090
Li         0.6648862158        0.2960439791       -1.8332611468
Li        -3.7237093567        3.4489754005       -2.4487214434
Li        -4.5372711556        1.3243947047       -6.8538293500
Li        -9.1082181526        6.4012102587       -3.8405610131
Li        -0.2475425161      -13.4447721114        3.1610719101
Li         1.3775385691       10.2096784304        7.1014581978
Li        11.5283480078       -4.1465118681       -2.1392722950
Li         8.6758010136       -1.9905346462       -1.0029274295
Li         4.7335780631       -1.1893364258       -6.3990790290
Li         2.1218647448        0.7677437783       10.4612866511
Li         2.7180321313       -1.3436469885        0.6805353342
Li         8.6007644457       -0.5977715262        2.5873089050
Li        -3.4897001330        1.8441084147      -10.4013983261
Li        -3.2329880499        7.4864009186        3.5111004009
Li        -3.5056998069       -2.8964750018       -3.2656430993
Li         2.5933096147        4.6579678171      -10.2058160393
Li        -0.8569625907        1.2860708370       -7.8409653064
Li        -3.8860420309       -1.5123304652        2.4430190006
Li        -3.2789318378       11.1185399891        2.3328884253
Li        -0.8661275380        7.2484166329        8.2457943353
Li        11.3697007412       -1.4820988584        5.0017057586
Li         1.4724935548        4.1658151875       -6.7046865965
Li         6.3002098416        6.4726661781        2.8823378232
Li        -1.6520795819       13.2078538574       -3.7785347681
Li         0.9635284091       -1.7669812546        7.8422035427
Li        10.0422893455        2.0833260799       -4.0335714973
Li        11.5080065859       -2.7856147171        1.4219304691
Li        -3.3971680722       -7.9756077989        1.3721314925
Li         2.8368365477        7.3341789448        9.2597731917
Li        -2.3102236221        4.2238608103       -5.8184298717
Li         2.0648869521        2.1423231871        0.9601154472
Li         1.7552567017        0.7544469564       -5.2499903632
Li        -0.5191707516        8.7878421225        1.1065823473
Li        -3.8764558522        6.9795466673       -3.7467106767
Li         5.3833052964       -5.5142822828        4.4660806124
Li        -0.5088664730       -5.2263387011       -6.5118912267
Li        -1.1944898638       -8.0423864380       -8.8563395427
Li        -5.4559525510        0.3971325500       -3.2985836862
Li        -1.3758220291        6.1899430379       -1.2494430660
Li         6.8285258624        0.2316723560       -3.4699058679
Li        -8.1580945637        1.0346153723       -5.7721413979
Li         8.1854971327       -7.8754097502        3.3884776656
Li        -5.3093179954       -5.6384627528        7.2618291929
Li        -3.0858807947        4.2414595535        9.2985542393
Li        -6.5184428037       -5.9002968506        0.7406211826
Li        -0.4791250512        1.8295071426        7.8775737655
Li        11.1102662205       -7.9220663984       -2.5879803810
Li         2.3022859104       -1.5502656444      -11.1796542923
Li         7.8937708946        2.9762223351        2.9783205787
Li        -6.7572651803        9.2772384289       -2.7182687090
Li        10.9355717485       -6.5619974235        0.9030473402
Li         5.4872176500       -6.9060210585        0.8800025137
Li         2.6736486436       -4.5840722993        2.0107911829
Li        -8.4024238674       -3.4554675605        6.4736999339
Li        -4.1901611124       -5.0818975299        3.7318806166
Li         2.9823410197        4.8397874234        3.2923186303
Li        -0.2520533992       -2.9231066575       -0.4909697915
Li         2.8703534047        1.2249163651       -8.7059804622
Li        -2.2960692312       10.0406742525        5.9673190698
Li         0.3768283714        7.6964302844        4.7008539298
Li         2.6495134613       -7.8998752331        3.3037222332
Li         3.2694831445        9.0670529115       -5.2312134031
Li        -9.1452467237        3.1147695306        5.1264688469
Li         0.6289579638      -10.4810065867       -6.4649946747
Li         0.5941419814       -4.8205341437      -10.0566398390
Li        -5.2662942724        1.1840764438       10.2190857798
Li         6.0005099413       -6.4943757534       -6.4833011664
Li        -3.3679700491       -4.3933469250        0.1201270428
Li         9.4594448060       -0.4274849033        8.2231917606
Li         7.2832140415        9.1608458022        5.2461577212
Li         6.0557424755        3.1175904044       -9.3149317336
Li         4.0184831268       10.9860906616        4.3535455379
Li        -0.1271925310       -2.2454391314       11.3524088551
Li         7.7994286390       -8.9165468773       -4.0308847248
Li         3.5324250749       -2.8448377559       10.2987406563
Li         3.5203279429        5.6150263809       -3.7853030570
Li         4.1865319972       -4.0454343886       -8.8839421614
Li        -8.8213998098       -1.0161799596       -2.7044359801
Li        -9.3750802873       -3.6759279947       -0.0602791172
Li         3.0559100511       -4.4870938183       -5.3195888692
Li       -10.8794920142        1.7418047875       -8.1687994497
Li        -1.1171727470       -9.1161510537       -1.5856646574
Li        -6.2091649668        4.1213601169       -4.8865180726
Li        -0.4890216725        5.1749202825        2.3427542829
Li         1.5011374701       -7.7208860879       -4.0695853915
Li        10.0813323462        5.8643494464       -3.3509865944
Li         5.2896960306       -8.9306034619        5.7916325218
Li       -10.8906053067        3.1549023509       -4.5483623882
Li         2.4774245480      -12.1199638719        0.7348084947
Li         6.9430436393        0.5262776929        5.8055568000
Li         6.5084955250       -3.5688146561       -4.0189568370
Li        -5.3701674425        1.6023090097        0.3400400485
Li       -11.4191479047        2.2481525534        2.1477929386
Li        -1.5741809369        1.3628259366       11.3889086870
Li         6.9016689709        3.9935069120       -2.8667969402
Li         2.3783267985       -4.9049402174       -1.6813297803
Li         8.6830604690        5.3884074179        0.0862271820
Li        -0.1634707656       -9.9035968650        2.0199257188
Li        -2.9982106702        2.1025817670        3.2168597923
Li         5.8598172328       -0.7155674533       -9.9015982295
Li        -0.5167683841       -0.2301040415        1.9256851127
Li         5.3490003963        3.7547931450        0.5381130595
Li       -11.6589929515        1.0444544820       -1.5117963330
Li        -3.0047066985      -11.1179487314       -7.5054217450
Li         2.5088365181      -11.2982533874        4.5437749664
Li         1.6301991440       -8.3474738837        6.9180593995
Li       -12.1806898608       -2.5814249484       -2.2291503294
Li        -9.2427396497       -3.5456764125       -5.1437168468
Li        10.7529671111       -3.9390307388        7.9460723685
Li         9.5914147826        8.1425360736        2.4556568990
Li        -4.1314503236        8.4137772442       -0.1423843105
Li        -6.0671126938       -2.0764656888       -5.8562801747
Li         0.3152516008        3.6147528087       -3.2247553738
Li       -10.6337567913       -4.3393702778        3.4359340210
Li         0.6271490986        2.2238175501        4.3612849573
Li       -12.1284771330       -1.4769877940        1.3862726855
Li        -6.8339175195        7.1298716569        2.2511924948
Li       -12.7797786968       -5.1536264833        0.3657031844
Li         1.8235801371       11.9759167226       -3.0924434520
Li        -5.9431649280        9.7770391540        4.7110662423
Li        -6.8234841374       -4.7216052722       -2.7692828244
Li         2.9424195145       11.5584273495        0.6122278781
Li        -5.3937559484       -9.8241685314       -4.6935698621
Li        -9.8317863804       -7.3258759278        1.0921923383
Li        -4.5252895648      -10.7520676156       -1.0632068553
Li        -2.5206339551       -2.0146068713       -6.8043067873
Li         3.7321926932        2.1687932495       -2.3389088596
Li        -0.1923896321       -6.3885601788        0.7458588585
Li        -7.6698771403       -8.5010737408       -1.8436928876
Li        -7.6723656545        0.2843402596        7.3556374158
Li        -2.9279236190       -4.6588813639       10.1452276124
Li        -8.1293145101        2.5608928705       -2.1027184205
Li        11.7901784459        1.0116064796        1.9898428728
Li        -6.7347528417        3.9989971379        8.0139940848
Li         9.4553048810       -5.5715284891       -5.0952943363
Li         3.9243260569        7.5509340695        5.6795251750
Li         9.8207805952       -1.7478251711       -4.6121250792
Li        11.2578492044        4.6716813019        2.6044134701
Li        -5.0092311274       -2.0537864925        5.9380863398
Li        10.8153451349       -5.2461343081        4.4262643695
Li         8.3203846377       -9.1736593860       -0.1958998535
Li        -2.0637893964       -7.6636327899        7.8733103322
Li         0.0643157902        7.0154991216       -4.6230311285
Li         3.9910468439        1.7116492726      -12.1953952799
Li         5.8023404168        0.1710950002        9.3931723206
Li         8.0247274906        3.1494478717        8.2941492639
Li         2.9860362490        8.2135025497        2.0005924321
Li         4.9278199435        2.6312184671       -5.8151371964
Li         5.3752423274       -2.1442260773        3.1015344085
Li       -10.5460968996        5.9239676208        2.8104153388
Li         1.9987913950        8.6576945525       -1.7030072993
Li        -4.3410571414       -5.4443326797       -5.5948819231
