264

Li        -11.1943587100       -3.6103468651       -2.4795215439
Li          0.5041688054        9.9002108709        8.0872983167
Li          3.3861115631        2.8907838821       -1.0777942209
Li         -5.8562398454       -3.6956557789        5.2217742781
Li          2.8064775772        2.4173358620       -4.7211867008
Li         -3.0243834392       -4.7107628330        3.1107174552
Li          2.1564433948       -1.0337106244       10.7283256179
Li         -2.4748177457        6.4546873828       -5.9967109382
Li          3.0421689187       -8.7897360132        6.9096616701
Li         -2.2595569639      -11.5003832233        2.2240886640
Li         -4.6356403933      -11.2485619550       -0.7669065780
Li         -2.6195517943       -0.0177181704       -4.9277717645
Li          6.4505057689      -10.5085634184       -1.8573732253
Li          3.4409750180       -1.2299779956       -5.6895861457
Li          7.0590684286       -2.9239843321        9.3222908410
Li        -11.8328205732        0.1823685170       -2.0083108051
Li          1.7977571085        3.1868430861        6.0226543639
Li         -7.1104309739       -6.8376436122       -6.6646685389
Li          9.7192514872        2.4221140517       -2.0440182199
Li         -0.4317947444        9.2207478569       -7.6776607275
Li         -2.1846386101       -5.9110939679       10.3282089034
Li          1.3135921664       -9.2688420504       -2.7591706779
Li          1.8667804764       -6.2909475747       -0.6693891100
Li         -3.4490955987       -1.5829378311        7.3673040405
Li          2.0473982487       11.3261579378       -5.5762980327
Li          1.2652426913       -5.6301214412        6.0817956645
Li          7.3978686287        8.5710562538       -3.7091251983
Li          1.2944906734        6.0025965282       -6.5696836096
Li         -8.4245121456        7.1697707003       -1.5701316140
Li         -3.7153421142       -1.0580871844        3.6251989058
Li          0.8591212289        6.5383299305      -10.1470308403
Li          4.4044073359        6.1275028049        1.1897998818
Li          0.0134161602       -2.8880232609       -5.5046270431
Li         -1.7981195819       10.2904650234        4.9896288937
Li          4.0984061078       -4.0966960412       11.3730391797
Li         -0.3739709164       -6.0056428688       -3.6458533548
Li        -10.2303568395        3.7033783512       -1.7997734866
Li         -3.0284930603        0.4182220901       -8.5920430213
Li         -2.6155601857       -5.2753812019        6.7100116678
Li         -0.5630775204       -2.5599713081        5.1923957705
Li          6.2411300050       -2.3981445155       -7.9361672669
Li         -5.9688895460      -10.6432147905        2.8524594253
Li         -6.7386001712        4.0290606843       -0.4543191732
Li          5.4970429751       -5.2218524726      -10.1736783643
Li         -4.3757071588       -9.4827453551       -7.2459619010
Li         -2.9271226576        6.9644891838       -9.6278818791
Li         -2.9732610435       -3.3754323572       -3.2645364329
Li         -1.5075482358        1.2249495621        5.7677799722
Li          4.5514850297       11.1497712330       -2.6011618590
Li         -6.4121145930        6.6957337784        8.1282233427
Li         -1.5888896071        4.2585130653      -12.0623737485
Li          2.4054853461       -3.5533346449      -11.5695641351
Li         -8.9758005798       -1.0707967973       -4.0476223560
Li          5.8717524948       -1.6852726645      -11.5613545434
Li          0.8193219941       -5.0209954204        2.4998097359
Li         -6.3159709419       -0.5179139273        9.5287293658
Li          4.6622520832        5.6765659683       -9.8299131009
Li          9.8484978876       -2.6101469825        3.5832167751
Li         -5.1633587893       -6.0072914162       -1.7487786268
Li          8.3683909133       -6.0679606667        2.7542895771
Li          7.9342750282        0.5999073099        2.8968629719
Li         -6.0322609926        6.2624739755       -7.3990205376
Li         -5.5576593182       -0.7083778461       -2.6759756715
Li         -7.3600932658       -8.5977055087       -0.1622457559
Li          9.7634654727       -2.2566712452       -6.7069190288
Li         -6.4418500468       10.5169020413       -1.3389171195
Li          2.3219099351        6.1157414147        8.3896543835
Li          3.5715698989       -3.2908679821        7.7458346547
Li         -7.6336914730        8.7309455098        1.8686720876
Li          5.0569284619       -6.2434796822        1.1493123388
Li          5.0599714829        0.1497449655        8.6130925828
Li         -8.9727177708        5.4636266094       -5.0115317281
Li          1.4703111017        0.0752695929        0.1423014730
Li          6.9335732223        7.5765952131       -7.3563475191
Li          9.6087504877        4.3887169592        5.1554090772
Li          4.6831084941       -7.3204535478       -2.6536329827
Li         -8.6373578174       -6.4069975802       -3.1257583257
Li          7.5191855943       -0.4187610079       -0.7551141860
Li         -4.6602999237       -7.9459897079        8.2502076163
Li          1.7200369467        5.4450961093       -3.0168070018
Li          4.4821397165        0.8527305437        5.0455477488
Li         -5.0207961540        0.9285500447        0.6732459861
Li          3.3264417649        8.7764476333       -8.2049661956
Li          5.6064612742        1.3080364230       -7.0464295787
Li          3.8043413511        8.1483837290       -4.6380206489
Li          0.0524681573        8.5983729195       -3.9980156283
Li        -10.7010376864        2.0151935286       -5.2208463684
Li         -7.1514218464        8.8581693887       -4.7569211239
Li          0.2113602682       -3.0428137144       -1.5315340674
Li         -1.0826197303        0.5943923100        9.4250431154
Li         -1.7908292951       -5.6080722111       -0.1553945286
Li          2.8041381274       -4.1047513003       -7.8024239394
Li         -6.0347354630       -0.3192952844       -6.3568870831
Li          6.3091089927        8.9310381943       -0.1267701612
Li          6.5215334305       -2.0451715892        5.6406419249
Li         -3.8955621706        1.5625526176       11.6075507468
Li         -4.3058465165        2.5528553945        3.9439671683
Li          2.5377308111        8.3620325584       -1.0366777112
Li          8.5098639517        4.2654549323        8.7932696884
Li         -0.4171356029        7.0894273174       10.5980943124
Li          0.6839425572      -12.2129781616       -4.8832387362
Li          6.9358466884       -9.4317962831        1.7905823375
Li         -9.3335459918        1.1919819338        7.7871248641
Li          6.1320531359       -3.9196712427       -1.6655658616
Li          7.5502820272       -8.1811629997       -4.7596636032
Li          1.4658138549      -12.2688570057        1.5986419636
Li         -9.5765689149        5.3304082068        1.6443649562
Li         -5.5162428544        5.7466293502       -3.6527651600
Li         10.0827323162        3.4608057114        1.6068533713
Li          3.3942336343        6.1710880872        4.7830396352
Li         -3.7149502006        5.1758950362       10.2727735839
Li         -4.2055638126        2.2039717275        7.9160233044
Li          1.3063487167        8.3204599118        2.5952867518
Li          5.6880838980        3.0106599791       11.1028380257
Li         11.1460702174        0.9316781884        4.4804577541
Li          4.9164522914       -5.4317249691        4.7699047644
Li          2.3831657546       -7.0873936085       -5.7088254312
Li         -0.7094893658       -1.8105621099      -12.8560598727
Li          0.7503441448       -0.0883420600       -3.4068160932
Li         -1.2441267034        3.8173560395       -8.4547725781
Li         -0.1038732556       -8.9285644790        0.8185183024
Li         -3.8581092959       -8.1693137657        1.2496651323
Li         -5.9652758422        5.6116578806        2.9044343747
Li         -2.8677914320       11.9747168663       -1.3176122337
Li         -8.6168501839       -7.9187211031        3.3880989959
Li          2.6507200781        3.2716163951        2.4135360007
Li          8.3695272847       -5.0826601684        6.3716679745
Li         -0.2898847570        2.7614602224       -1.3911791207
Li         -0.7992785466       -8.4301636133        7.7102049660
Li         -1.3378033137       -8.7788244093       -9.5155975310
Li          2.9029421133        8.9480510524       10.8092798539
Li         -3.8192852176       -2.6472014848      -10.7441045089
Li         -3.1453065617      -11.6660914773       -4.3326210514
Li          5.2175415850       -8.0385951622       -7.7651693280
Li         -9.9600719644       -5.7943951999        0.4566740070
Li         -1.6787144229       11.7187356776       -4.9691627942
Li          0.3826736324        0.5305852662       -7.0351408145
Li        -10.5563631578        3.4174378577        4.8614831252
Li         -9.7712790197       -4.1254387891       -6.0326752687
Li          1.9693277238       11.0584544655        4.7579433291
Li          2.2486320382        3.7087027534      -12.1538137343
Li          2.9268984919       -4.0042973806       -3.4732929606
Li         -6.4521684790        0.1055715469      -10.0268906928
Li         -1.2244234139        8.7617311847       -0.3584287246
Li         10.8832060318       -0.1622861710        0.7236780603
Li         -3.4106019675       -3.0578829667       -7.0305495251
Li         -3.6926944152       -6.4352233917       -5.2644107926
Li         -7.7723543080       -3.2482967265       -1.1293148521
Li         -2.4588193926       -8.6649982477       -2.2460223774
Li          5.3989411618        5.7264831401       -2.3618942375
Li         -7.2908636645        2.3591178300       -3.8614540367
Li         -9.4452691985       -0.6582780044       -7.7184795499
Li          8.4761189201        0.6039426409       10.0172510660
Li          1.1649777728        0.3466484196        3.6296012090
Li          0.4916352030      -10.7720411864        4.8855324055
Li        -10.7282621493       -2.0200872231        0.9741676282
Li         -7.0794953831        3.6946666804        6.1403344826
Li          2.7477610693        0.0028733371      -12.9502540499
Li          9.0234034505       -4.7262155481       -3.8972980614
Li         -7.8065787318        2.8275064888       -7.6214792790
Li          0.0137376766        1.1315338284      -10.7046296734
Li         -9.4219252091       -4.2037036276        3.9298032031
Li         -4.1430378235       -6.1277646825       -9.0695907545
Li          2.7808742901        5.3583286432       12.0158087808
Li         -4.3365607490        3.1226611064       -6.2142776965
Li         -7.0085531758        3.2953950770        9.9399779234
Li          8.3611070832       -5.6796742679       -7.6669894511
Li         -3.3905974775        0.8691719293      -12.2388744851
Li          6.1450252237        3.7840829123        3.8070952457
Li         -7.9200609385       -6.3250602874        6.8118711175
Li         -6.8607128965       -3.4149992133       -8.4573231923
Li         -0.9078903597       -2.1144422595        1.6553600882
Li          3.0377105568      -12.4630580425       -1.9054452942
Li         -0.3347920496       -2.3574721002       -9.2036806410
Li         -1.5715010789        1.4910921542        1.7903603161
Li          1.6400838459       -0.3256275290        7.1497816154
Li          9.1584262583        1.3698116643       -5.7169190115
Li          1.6681342126       -6.3304881874        9.6674947332
Li          6.9547751465       -1.4827414215       -4.4207508578
Li          9.5058797759       -3.6568280953       -0.1253133650
Li          4.8752789934        4.9378205565       -6.0778619397
Li          2.2292802004        2.5311854261        9.6122260226
Li          2.6938564601        1.7231610160       13.1749037061
Li         -6.5175524585        0.0175606135        5.7301972856
Li         -4.1590335011        9.5867629559       -7.0522911759
Li          3.2132206110       -3.0672652772        0.4742813732
Li          1.8902631526      -10.1106745723       -7.8427224402
Li         -7.8053767381        2.1572916434        2.7602939788
Li          0.3081743115       -3.8190945520       12.3376870677
Li          5.4147869439       -6.3265965881        8.4525957357
Li        -10.0893002823       -0.4041713476        4.4109984721
Li          6.7268760749        3.2271733986        0.2421606111
Li         -1.0686967969       -5.3285692297      -11.2726422756
Li         -1.2864058870       -7.7256347229        4.0420299656
Li         -0.5805859845        3.4974725589       11.8819668033
Li          8.8282971317        6.0446897831       -1.0979941872
Li          7.7594222296        3.9439953203       -8.3626998315
Li        -11.2518288595        1.8117970542        1.4319729771
Li         -8.6816844700       -2.5801556872        7.3367097903
Li          5.1323628809        3.7726139219        7.4324977707
Li         -4.3195042857       -2.8326737283        0.2195674684
Li          4.0906873497        9.0766786672        7.1808045255
Li         -8.7228336665        6.8391421901        5.0451086916
Li         -1.9564223863        5.8705789364       -2.4065448315
Li         -0.6725957478       -5.7749360403       -7.5648546235
Li         -5.1173262838       -7.3916063879        4.6236123290
Li         -3.0857251283       -2.2254476434       11.0501777610
Li         -8.4366880306        0.5447370898       -0.6470056144
Li          6.2740812153        2.1805117643       -3.4361696128
Li          5.7550599407       10.9480378093       -6.1937568493
Li          4.2393516363      -11.0665906735        3.9058730446
Li          7.8962004915        1.4118575033        6.4446109532
Li         -0.9816921755       -9.0133218233       -5.7700962172
Li         -3.5964022846        5.4406221219        5.9682561146
Li          2.0904921069       -7.0089046297       -9.8917148111
Li          6.8974597159        6.7826513069        6.1628562454
Li         -3.8433480777        2.6709704531       -2.5136116857
Li         -5.9428930170       -9.1102084016       -3.7399579160
Li         -0.4414723743       11.6145943372        1.7379950040
Li          2.5746708527       -7.9517345832        3.3670096447
Li          8.0726174310       -7.1155187661       -1.0208341213
Li         10.3686695681       -1.2214771325       -3.0131748546
Li         -7.2265830867       -1.6344300059        2.3096199040
Li          4.1632536196       -0.6389272550       -2.1735132312
Li         -0.7226529908        4.2812447164        3.7837183967
Li         -6.3649881908       -3.7734047573       -4.6787803241
Li         -0.9382535422        4.2122196706        8.1385800057
Li         -0.0681858160        7.1312966840        5.8437594107
Li          5.1497832067        9.0985257078        3.5199542974
Li         -5.5306951005       -4.2832386981        8.9678439408
Li          9.9085335667       -1.5896984590        7.1879009480
Li          3.0635588444       -2.5418438293        4.0456875876
Li         -4.8458291194        7.4278743323       -0.2669184361
Li          5.7175216578        6.6392083227        9.8058552519
Li         -0.6535750523       -0.1307769402       13.0268926177
Li          8.3947111696        0.2591435936       -9.3077053513
Li          3.1204204724       -0.6103376346       -9.3212684048
Li          5.5808208114       -0.6640051925       12.1717764609
Li          3.5818096552       -9.5576202849        0.2841275975
Li         -0.1961440775       -3.1785847662        8.7669846095
Li         -6.4871467642       -5.3845503859        1.7642439231
Li          4.2130790826      -10.3620184640       -4.8851472376
Li         -0.8013398057        3.2679567849       -4.8971482985
Li         -3.6714086451        9.0192818833       -3.4039424285
Li          6.6033320378       -8.4732772330        5.4191558218
Li         -2.4373398934        7.3577897865        2.8332234758
Li          3.2830414689       11.2315412998        1.0671049471
Li         -2.9456639886        8.3084910458        8.0834881198
Li          0.8321134366       11.6310044575       -1.9298536337
Li         -4.1632469445       10.4666260941        1.8539054996
Li          7.9501672810        6.6359761338        2.4822532029
Li         -2.1989755304       -0.3242838835       -1.2788087276
Li          5.6276644117       -5.0095030750       -5.4752719884
Li         -4.7569835028        3.5875835847       -9.9124422941
Li          8.3747581809        5.0030235598       -4.7361162755
Li          2.5017984392        3.0886808835       -8.4780091505
Li          6.4890105053       -2.8957095641        2.0774269121
Li         -3.2953823183      -10.4308590161        5.6565745560
Li          0.4987156668        5.5387753969        0.5876624517
Li         -3.1562717096        4.4248035163        0.7217844739
Li         -5.3186542120        8.6640184526        5.0191005547
Li         -0.8428494577      -12.0005381990       -1.3533409611
Li          4.6699062552        0.3070297648        1.5472158580
Li          5.3647925944        2.0241287207      -10.7915069113
