270

Li        -10.1058473936       -5.8144403000       -7.6593394145
Li         -1.0141452968        5.0692666517      -13.4340146159
Li         -2.4579256388      -13.0646802248        3.3378226556
Li         -0.2930449499       -5.5490757593       11.8771660865
Li         -5.9042740443        2.3730101548       -6.3348420810
Li         -0.5385741162        1.3189865583        0.7746215101
Li         11.7072357897        5.5832819179       -2.3025508981
Li         -3.9033550715       -7.6963643143       -0.2244037787
Li          3.5112884606       -5.1236366612      -10.3801618723
Li          9.5151897480        7.2520106483       -4.9741111992
Li          1.0502272213      -11.5571838187        3.7035283966
Li          7.0135990109        7.8236914134        5.6617908236
Li          7.5523044081       -0.7823893214        4.4715350481
Li         -0.7172844644        4.0296520105       -9.8750865929
Li          3.1475466130       -9.7069957589       -6.0959949161
Li         -0.4990743069        4.7897798755       -0.2688238367
Li         -3.0388739475        1.3701468040       -8.6825368577
Li          8.5982453391        4.5695740401       -0.5847535023
Li         -5.5733371694        3.1710236735        5.3143154112
Li          2.1504089587       10.7643593414        0.5075335811
Li         -8.2516876789        6.9062234557        1.4539727848
Li         -3.7279608409        5.9610018522      -10.8322269780
Li         -0.5216009340       -1.1863790251        7.3214563705
Li          9.9586273138        1.1793371502        6.3363050247
Li         -5.8877245076        5.6194610579       -4.4223645246
Li         -2.0263744705       -6.6908696346       -3.3573988442
Li          6.5091562031        7.5044898297       -7.1949413414
Li        -11.9095182610        2.4820215556       -2.2364521833
Li         -4.4198563292       -8.4850903570        7.4793689704
Li         -3.8928248628       -1.4571315966        5.8354636793
Li         10.4877394298       -1.5140169765       -4.2024096000
Li          4.4972802259        5.6368784122        3.9247125085
Li          0.4120306741        5.6709110766       -3.6790354282
Li         -5.3262973222       -1.3134784215       -7.2470479370
Li          9.0996994685        4.7487925329       -7.9445749633
Li         -3.4080355361        3.5570686246       12.3245164654
Li         -0.4277505541        8.0666776637        7.3773793233
Li         -3.7351545889        6.4813931257       -1.0726616096
Li          1.4997305334       -7.9537386542        2.9999517171
Li         -6.3877789826        6.7280432767       -8.0639257398
Li          2.3192267146       -1.8332717413        5.0462537345
Li         12.0671840858       -1.0039187807       -0.6910315412
Li          0.4328165306       -4.8567607667       -1.2582921192
Li          1.2866088494      -10.9033723747       -2.9526867756
Li        -10.2189050419       -1.2543209117        6.8968431543
Li          8.1152380160        5.4507212135        3.0780864744
Li          1.3317475699        1.8187598009        5.2960053305
Li          6.8490347794       -5.0676220632        0.1319679088
Li          8.3228149557        9.0699757609        2.2822970593
Li         -9.9116636540       -3.7078926087        9.8147619425
Li        -10.0154445421       -4.9910357884        6.2911985183
Li          0.9297372826       -1.2778468975       -1.8342066707
Li        -10.1731910927        6.0668145901       -1.8338009209
Li          9.0961943396        3.6519229742       -4.2354574932
Li          9.8279571658       -6.9792059719        1.2315389655
Li         -6.9728741007        8.1802066055       -1.9073903383
Li         -3.2716484468        2.3202789884      -12.2081858745
Li          7.2191493401       -2.3594604443       -2.5245969446
Li         10.5651041002        1.3482317466       -6.8113429508
Li         -2.2452976277       11.1294767383       -5.4076417838
Li         -0.1418963175       -5.4480297853       -6.4528229076
Li          1.7733840929        1.0100079509        8.9950463376
Li         -4.9829390337        8.9360344153        1.4347004778
Li         -5.0458966039       -2.1095776328       -3.6712817720
Li         -0.1210864115       -1.9437341283       10.9060765733
Li         -7.1132747031       -3.9505467258        4.4069991470
Li         -2.6063900215       -7.2423882817       -8.5657761777
Li          3.4063647875       11.8849802793       -3.0546804829
Li          6.0089705878        5.8408585054        8.6996710906
Li         -7.1923103122       -6.1378109729        8.6963618003
Li         10.6646671272       -2.5905324875        5.6003065560
Li          3.3409387180        7.9123308532        6.5754659729
Li          2.0875248071        7.1318770684        1.3871406415
Li        -11.1493047950       -3.7762952679       -0.1506892274
Li          0.7180618876        0.6603216652       -8.9701171732
Li          3.1308212329        5.0131422989       -1.4338643530
Li         -3.0411067957        8.5976611785       -8.1462341848
Li          7.9331861923       -8.1215876336        4.3990677552
Li         -3.3707688136        4.8972069380       -7.2303777784
Li        -10.7096688624       -4.8447833962       -3.9398981543
Li          5.7816903765       -4.4692700930        9.6696118532
Li         -8.7346657278        3.3480232262       -3.9447936147
Li         -1.6039444305       -2.0872453977       -7.6443847181
Li          1.1980137433       -7.8777559259       -8.9139812598
Li          3.6245236561       -6.0189467495       -6.7308110006
Li          3.4406708832        8.4355567287       -2.1475559029
Li          5.4345313747       -3.5922961437        6.0936574790
Li          2.0994485112       -5.4819918813        5.8518660620
Li         -8.7541163693        2.1892571973        7.3212700101
Li          1.8410046087       -4.3817798424        2.2366211564
Li         11.7669441715       -3.7452305176        2.0218540631
Li         -7.5535475285       -3.9929394481       -5.6564475482
Li         -5.5633310964       -0.4379628620      -10.8147146439
Li         -4.9929969243        0.0793444588       11.9605821604
Li          3.9569512952        1.5423408236      -10.7944797014
Li         -0.6890197419       -9.1891310407       -5.8205275577
Li         -2.9531432157        3.8524753037       -3.5605197201
Li         -7.0894411588       -8.6707615009        1.5296836610
Li         -0.2878671027        7.6604793352      -10.7830235399
Li         -1.5800927750        6.4525927207       10.5550442901
Li         -4.4116554257      -11.3073325387        0.5724176552
Li          4.5869168509        9.3716594546        3.1518195738
Li         -0.0573347226       -8.4433742357       -0.5300121880
Li          5.4583471295       -1.8674334618       -9.6960632890
Li         -2.3585453071        1.8733891778        6.2557451321
Li          0.8883434712       -0.2984842759       -5.3865957623
Li         -2.9461353409        9.5111552726        4.7758563262
Li         -4.1136286800       -3.0458857387        2.6772933572
Li         -4.1925904459       -4.9588034306        6.6502148735
Li          3.4333661400        6.6149341635       -5.4445172000
Li          5.2773290036       -5.5870081698       -3.3026212010
Li          6.6367727767       -8.0234618790       -5.7592668387
Li        -10.3814386620        1.1130987799        3.9111916312
Li          6.3413803194        6.1564724165       -3.2505798948
Li         -1.7030974288        3.5531283225        3.2019734406
Li        -10.6745571518       -2.2109345263       -6.7702867359
Li          1.8006955107       -7.2861618957       -3.6550024110
Li         -1.0760583680       -3.8301123134        4.6816603984
Li          8.5180963366        1.8147912674        2.1161765795
Li         -6.5564448426       -4.9441188859        0.7432782619
Li         -2.5712553619      -10.3475317720       -2.6483375723
Li         -2.9453432893        5.8574214158        5.5882921694
Li         -3.4589581241       -4.0613690011       -1.0378355707
Li          4.4243742854        1.0404899340        3.4391765049
Li          8.2400460410       -4.4824968670        3.5648562807
Li          2.6721801736        3.9635522850       -8.1349703362
Li        -10.3844119841        3.6101286612        1.0058859310
Li         -4.5168498893       -6.7199751986        3.4819404598
Li          9.2340261567        4.9706435768        6.8530814678
Li        -11.9029131583        5.0267369304       -5.0595202217
Li         -6.4808344838       -3.4237043162       11.4020753820
Li          0.8502671589        9.3176943873       -4.5436260319
Li        -11.7853548719       -0.1069740056        0.6556617172
Li          5.2085403028       -7.3040665120        6.9521529484
Li          5.5312428281       -2.8113724143       -5.9873107511
Li         -3.7170232695        2.8216663349       -0.0650066991
Li          7.2605027555        2.1793067522        8.8412819097
Li          2.2816264262       -3.6175671103       -4.2878094356
Li         -5.8304732788       -5.9084028776       -2.9899715430
Li          4.1514540260       -0.4537419436       -3.4946812889
Li          2.0227192879       -1.7388444980      -11.4975347281
Li         -6.2366265869        7.5747478001        4.7720032566
Li         -5.5317499390       -1.0109810251        0.0153208513
Li         -0.0316176952        2.1148740987       -2.7313555698
Li         -7.1696578862        5.5699635797        7.7382026631
Li          2.2295776487        6.2312489011        9.7349593417
Li         -8.2998652805       -7.7156491323       -4.9685349130
Li         -5.6282018759        1.4999971350       -2.8322407862
Li          3.1651923851        7.6163356104       -9.1255910694
Li         -5.4290686258        0.8291026701        8.2692022529
Li         -6.9389840510       -2.6078577843        7.7840378580
Li          3.5761403516        3.8687576758        7.0508360086
Li         -4.5221989711       -8.5197562481       -5.4446308698
Li          5.7938776007        7.0432350283        0.4409195908
Li         -0.1577537899        4.1524620907        7.9559274532
Li         -2.5690206547        7.5149273871       -4.5103622396
Li         -1.6273684879       10.7732843848        1.3094294970
Li          9.0388354306        0.8701519750       -1.5994290905
Li         -4.2302473070        8.0133356739        8.1640998138
Li          5.9646838112        2.6362337968       -2.5021117374
Li         -7.5202849210       -7.6635480346        5.2655704190
Li         -1.9762538551        1.1753758794        9.8500006674
Li        -11.2674891163        1.4091211631       -5.9015936151
Li          5.1586484058       -0.6992142061       10.5168328886
Li          8.7526944461       -1.9554004234       -7.6449072451
Li         11.1451849347        6.5396474966        1.3144421148
Li          3.0033199293       -3.5415955972       12.1217057017
Li          4.9724649995       -8.4398402316       -9.1837746504
Li          5.8388008829       -0.0964715949        0.1296649262
Li         -8.4740418652        0.5096631435       -8.4443897604
Li          2.2635829766        0.2623413894       12.6423928967
Li         -3.8883242783        4.2405348346        8.7108668372
Li          7.3262959680        1.4319261684       -8.8804704319
Li         -6.3838828400       -9.5409799635       -2.2086098716
Li         -7.2246336931        2.0809198122        1.9300278627
Li          5.4986940574        3.5171900036        1.0984604912
Li          0.5155414584        1.6678701970      -12.5386356852
Li          2.1758134957       -2.7000004317       -7.9126323501
Li         11.5276488676       -0.0318104468        2.9888116878
Li         -9.0609458562        4.1657906905       -7.4893917107
Li          0.8463378688        5.7409057708        4.8113322252
Li          1.9834819306        3.5005635857        2.1668227541
Li         -8.7402733858        0.7553150979       -1.1346842555
Li          6.7268364013        2.9546751377        5.2990819138
Li         -8.1597643273       -0.3419642972       -4.7919788160
Li          8.5133390308       -5.3789263005        7.1762706067
Li          6.8841772917       -5.2289757094       -8.4427863861
Li         -0.3016467017       -4.5499272235      -10.1629546465
Li         -2.7681808060        0.5108923134       -5.1688785832
Li          2.9435628576        2.9496177122       -4.5301434973
Li          2.3937944925        4.9445163553      -11.7319121167
Li          2.1532132072       -0.8600871790        1.6044276141
Li          8.2621853930       -7.5356234696       -2.2759154627
Li          1.8016511650       -9.1247432701        6.6493167167
Li         -4.1074634411       -3.8915032432       -9.7956839378
Li         -0.3122930283       11.9339258312       -2.1545907363
Li         -8.9374025151        7.3212363257       -5.2179745383
Li         -1.4456581936       -2.9826921463       -3.9988457626
Li          2.6686249269       -2.7524244311        8.5590677581
Li         -7.1399484959       -0.2336089333        4.8591638499
Li         -3.8913363832       -4.7730862802       -6.0946833389
Li          3.4308300654       -6.8396755142       -0.1728208287
Li         -8.1159167839       -2.9597260298       -1.9456934162
Li         -1.4656724674       -5.8873927101        1.7708625252
Li          5.7880574919        4.8408022153       -9.8915912692
Li         -9.0237641321       -6.8451257729       -1.2279525670
Li          5.9856284603        3.8406100642       -6.2671624045
Li         -1.1145512790       -2.3724715923        0.9392557595
Li          5.1660158435       -2.6829422308        2.5482610043
Li         -0.3686794101        8.3540064496       -1.1903133031
Li          3.8613241839       10.2058856714       -6.4634095496
Li          8.8187268028       -1.8713917002        1.0254040984
Li         -3.7505338556       -5.9149710315       10.3322350532
Li          0.4168600787       10.2593495909       -8.1029264318
Li          5.9134389251       10.6227337002       -0.3247854897
Li          4.1039723843        0.5500960152       -7.1702449836
Li         -8.5058310822       -1.7493953439        1.7540343347
Li         -9.6287006802       -5.9254439063        2.5456879592
Li          0.4005449916        3.4080654994       11.6674953268
Li          7.9441654657       -1.6228183522        8.1142616521
Li         -3.6646318948       10.1318110218       -1.9923206331
Li          6.5665122732        9.7011690714       -3.9639510101
Li         -2.5585872074       -0.2833791273       -1.6841955078
Li         -1.4750365380        0.4486264059       13.4320189415
Li         11.2541839640        3.7012550377        3.8970912522
Li         -1.8938049730       -9.4644428577        2.6136419751
Li          7.3603304755        0.4285081593       -5.1637246119
Li          8.9376888326        8.2341059408       -1.3458258904
Li         11.7590826480        2.7541939683        0.2984287318
Li         12.2160450333        1.8192705905       -3.3524273983
Li          8.6200046043       -4.8065325514       -5.0086687603
Li         -1.3459037993       -7.2994601233        5.5453684046
Li         -0.5841423887      -12.0331636334        0.2052302166
Li         -4.0530973725        0.7294619194        2.8288121885
Li        -11.3992893333       -2.6724788885        3.5934580299
Li         -5.0225684649      -10.3940859479        4.2844253461
Li         10.2498381445       -4.3089661039       -1.5116541997
Li          2.8767452706        1.6092901600       -0.7733496799
Li          2.4724206414       -6.4368873093        9.4685849977
Li          4.5188649872       -9.8823118361        4.0563350346
Li          3.8594440337       -3.1509737590       -0.8611349240
Li          4.8329039736       -9.3295823825       -2.6228022920
Li         -1.6678677960      -10.8415102716        6.2924362447
Li         -0.7314859640       -4.7106193482        8.2954428227
Li          6.4419084239       -8.8009047237        0.8864249111
Li          2.9589669753      -10.4990183585        0.5435507056
Li         -1.6978375430        7.1626945480        2.2283755251
Li          4.8930094007       -6.2776894729        3.3061647491
Li         -0.9515875757       -8.2852495190        9.1598582791
Li        -11.3671110064       -1.2117438957       -3.0469992922
Li          4.1592449655        3.0941021190       10.7496246230
Li         -0.3846684375        3.0625783639       -6.2916160868
Li         -5.6414083260        9.3125439696       -5.3153059847
Li          0.8300029237        9.4648318901        3.9968040576
Li         -1.7921883856       -1.1383966640      -11.2641107522
Li         -8.4334051033       -0.2606244524       10.2542770867
Li         -6.8867392565        3.1858036773       10.6882368058
Li         -0.8963196467       -0.4102238395        3.8119424340
Li         -5.0171214501        5.1901915721        2.3216374227
Li         -3.0125537185       -3.0790375022       12.9604474185
Li         -7.8544115968       -3.1675773105       -9.2860400360
Li         -6.3937407263       -6.5608716301       -8.1580923716
Li         -6.9427526884        4.4375275205       -0.9185926370
Li         -8.7588450745        4.5992829572        4.3452095692
Li          0.0529307740        6.6724810009       -7.2208470046
Li         -3.5207706444       -2.3022665327        9.3942445318
Li         -6.1545124450        3.2653785743       -9.8570664904
Li          4.7396468480        0.1727994562        6.9756239783
Li         11.2577264646       -6.3026466622        4.7337045936
Li         12.2569457743        4.6642261994       -5.9094069163
