282

Li         -4.4200529591       -0.7664061274       -3.3872581825
Li         -2.0562417195       -0.4655732556       -6.3232468907
Li          5.9577169301       10.0263747474       -6.1880145600
Li         -8.7731275233       -3.0666531830        7.5678855432
Li         -6.8066571609       -9.4620659971        0.4501038422
Li         -6.4715118564       -7.6621131867       -5.6442544960
Li         -0.6564113319        6.3503248253        0.2176779024
Li          6.4019116752       -0.9234801383       -6.9039570844
Li         11.1443725514        2.3243940926        1.7662159957
Li         11.9795067471       -2.9577209515        0.0652563365
Li         -4.6831746377      -10.8445869530        3.3832667528
Li         -6.7664778217       -4.6248428011       -8.0396616107
Li          1.0097181145        3.7955205699      -11.6205880573
Li          8.3193540952       -3.5507641773       -0.2802821724
Li         -7.6105245318        4.0391915647        1.0782163837
Li         -0.5302491233       -3.0196353627       -0.5955506278
Li         -4.0194893910       -7.2939307112       -8.6238369754
Li          2.6966235369        4.0916728903        5.0257260391
Li          1.2972559977       -9.6025616817        8.1334384048
Li         -3.7082185624      -10.2795620311       -6.2069057700
Li         -5.5121173363        8.6152576168        8.5669692637
Li          5.8439749014       -5.1005359324      -10.1882753646
Li          1.4659913141       -5.8295628589        0.6741380620
Li          7.8341924766        1.4017610895       -4.1626784716
Li         -1.5798587421        2.9716255255       -0.8195305869
Li         -0.3234613133       -3.3098446871       12.3673494528
Li          4.9859290043        6.5763459594       -7.1567697167
Li          4.5426879223        2.5000244293      -10.6954599547
Li          6.1345112628       -8.1235231300       -7.8110111379
Li          3.4815898014       -8.6520021772        1.9573309906
Li          0.1444295749       -2.1465342595       -8.8292113852
Li         -7.0070323427        8.1302712070       -6.9834536374
Li          3.6434018927       -2.0623046609        5.1713530509
Li         -7.1232795914       -0.9008565186        4.9805078321
Li         11.4845935228        2.0507557674       -3.8418021493
Li          9.1211053621       -7.5030199804       -5.4536221289
Li          3.3120037901       10.3882385646        3.7194767621
Li          5.4832105647        3.0252711236       -1.6650021131
Li         -2.3660820073       10.4031465747        7.2582371730
Li          2.9638579264       -9.8889977682       -6.5116800305
Li          6.3719430785        4.8489653775        5.5323546723
Li         -3.4071259489       -0.2057802548        5.3130426884
Li        -11.2934426350        3.3972573862        0.6790678770
Li         -6.5785567120        1.9904864768       -4.7961993655
Li         13.1786490174       -0.6489236010        2.8380715194
Li          9.7593870494       -0.0377579927       -1.1136402156
Li          3.9520761219        0.9945391076        0.9188214736
Li         -1.4785635682       -6.3834022128       -1.6567916802
Li          0.3262870285        5.7215641510        7.3276823260
Li         10.1388753961       -0.2711221435       -6.6297841161
Li        -11.9723549682       -3.8777299243        1.7570105370
Li         -3.1003965954       -0.3735303645        0.0454003218
Li          8.0244551387       -4.5891682193        3.3884393840
Li         13.3254944171        0.5717629496       -0.7861162095
Li          0.8327824934        8.6100916480       -2.4166449182
Li         12.6528327296        4.3390526847       -1.0248896842
Li          1.7480588896       12.0750450511       -1.4136747042
Li          1.3218392392       -1.1072164618        9.8714946300
Li         -9.4707850437        0.7483905266        7.4029783780
Li         10.0553642132       -7.4123005524        4.6847081562
Li          8.9601568958        2.0280803473        4.8582581782
Li          8.7059257760       -9.7249997726        1.9207992970
Li          5.3369694332       11.3240021613       -2.6181119308
Li          2.3780996297       -3.8246871133      -11.2854810498
Li         10.6598003453       -4.0625571197       -6.3439308262
Li         -4.7297518340       -2.5149195100        2.5485146028
Li         -1.2375402160       11.4415137319       -3.7926991195
Li         -0.5277125059       -8.6770937728       -7.6718366583
Li          0.1735432504        6.9982958572       -9.6058690372
Li        -10.0084140522        4.5542775589        7.1377130061
Li          1.3777030883       -1.7532667129       -5.3410965008
Li         -6.9423521750       -1.5167584210      -10.3036129976
Li         -7.7344322421        2.8954943265        4.7544137421
Li         -1.7941854087       -3.4698783842       -4.0421048671
Li         -3.0886512998       -8.6394798957        0.8462311976
Li         -0.7185098614       -6.7783404128        6.7875734698
Li         -9.1335247679       -4.9214276070       -4.9803942785
Li         -5.0230174289       -2.3466200032        7.8610435646
Li         -0.8211410473       -0.0935523067       -2.9064713547
Li         -8.6974511476        4.7681718571       -6.1708452949
Li        -11.3839960753        2.2436926373        4.3821143617
Li          6.6730296838       -6.9366481283        0.6228657450
Li         -6.6002556008       -4.5038591953       10.4040431292
Li          6.4031968582       -7.9537588177        4.2782672280
Li         -4.0402480429        3.5154592006        5.0917369705
Li          2.3902176751        6.9537409178        2.6563865262
Li          9.5688232476       -1.1554516899        2.4939594253
Li          6.0420756121        7.8378815784        3.0652674370
Li         -3.8624761735       -2.0155850809       11.4666347363
Li          1.0694777113        9.1973387592        8.4284920051
Li          2.6754558452       -6.9408501765       -9.0070535005
Li         -3.7071802944       -7.4005838184        4.4171257860
Li         -7.9349506100       -6.8238015030        7.6244952953
Li          4.8922571488      -10.1923550349        6.8639122820
Li         -0.2273545823      -11.5703107856       -5.1541674971
Li         10.9665012597       -0.9921779650        5.9603427523
Li          2.9227728916        1.0816778230        7.2544290087
Li          6.8777985553       -5.8363488853       -3.0410099264
Li         10.4225079818       -6.4034364496        0.9876594866
Li          6.5101871088        6.4748391872       -0.6255905437
Li          5.5203030610      -11.4333702157        3.2651193715
Li         -2.6361464156        4.4822153747      -10.4927290315
Li          2.5997532975       -1.3315110604       -1.8618547103
Li          3.5974328178       -3.4297580106       -7.7859536742
Li          3.7966324386        9.1179336703        0.0395496372
Li         10.1319489455        7.1904524468       -0.4155919141
Li          0.7268189578       -8.1634886383       -4.0912911523
Li         -9.7445128219        6.8322283337       -0.2492247884
Li         -0.1136219945       -8.1176744863        3.2324199464
Li         -5.1155830550       -7.1685859566       -2.0985906128
Li         -4.1495230303        2.2743221737       -7.7583726209
Li          1.9103657058        2.3491845453       -2.0380202106
Li          3.8897118386       -6.4510984410       -5.4093799478
Li          4.3750836263       -5.1485761104        2.9930974783
Li         -4.2929700372       -4.2444404576      -10.9643235360
Li          7.0139936907       -4.6784627657       -6.6702235664
Li         -3.6253727557        5.6625559530       -2.1500739286
Li         -2.1500868543        7.8812654304       -4.7712337357
Li          8.6159831614       -1.2787274792        9.0006555314
Li         -8.3616651512       -3.2106294544        2.1612300497
Li         -5.1431650044       10.9601267156        1.2231517385
Li          0.5169064669       -6.5243930072       10.3744921494
Li         -3.1045338809       -5.7874485936       11.4440825671
Li         12.0340408074       -1.7504615187       -3.5804294556
Li         -3.3097884750       -0.8420712465       -9.7955062083
Li         -1.0738440654      -11.6002466581        2.1861060448
Li         -2.7431539372        9.1130950991       -1.1376811019
Li          7.4623950140        9.9389021696        0.2501502581
Li          5.3064972512        1.4046671257        4.3748668175
Li         -8.4833655062        7.9722993864        6.2075116142
Li          2.5515538768      -12.1037042036        0.9068289898
Li         -8.7450932778       -7.8852656794       -2.5133577706
Li         -7.3309512850       -0.7193610351       10.2851641324
Li          1.6665954671       -4.7371694455       -2.9943998340
Li          8.6471289604       -2.6013762309       -9.3037394833
Li         -8.3030757220        9.1047089536        2.5239770647
Li          2.8597180604        5.7262975469       -1.0107469482
Li         -5.7997881866       -5.9983734327        1.5071617748
Li          2.9589024120        0.3571228253       -8.0473754686
Li          8.6732180114        5.1289789965        2.4091049220
Li          7.0614544157        5.1465222533       -4.2529596834
Li         -9.9643200222        5.7294332076        3.4672143906
Li          9.4531374787        3.5354438263       -6.8047300862
Li         -1.0712110568        0.5027290116       12.3191324924
Li          4.6976564593       12.5293346794        0.9589981800
Li          3.8012856495        6.2797682477      -10.6826723394
Li          7.5090181141        1.6836610436        1.3798439003
Li         -6.3432633239        5.1694056155        7.4570146442
Li          0.0159038962        8.6797920214        4.8762949758
Li        -10.2526937937        1.3352989545       -5.2465933254
Li          8.6170606436        7.2884368100       -6.8512108312
Li        -10.9549073137        4.4411218188       -3.0405790593
Li          4.1577412955        0.7329527938       -4.4672777293
Li         -4.2128742386       10.6386932062       -6.0966737104
Li         -6.3559418042       -4.6735422125        5.0776812748
Li          1.4265414315        7.2662560134       -5.9983944980
Li          2.8057387979      -11.1186086561       -2.8370250809
Li          5.8004125816      -10.5012067061       -0.4642379924
Li          5.2295597806       -1.3164899656      -10.5272475133
Li         -4.1254562622       -3.7582857271       -1.0269294721
Li         -0.5393968533        1.6559081782       -8.9991913732
Li         -8.0391552119       -1.4402511865       -3.8286440152
Li          1.7311899478       -0.0141940443      -11.5818687451
Li          1.4084504966        3.6133386217        1.5531589862
Li         -9.9967696822       -5.3739563455        4.7083855033
Li          0.6587074156        2.6678582769        9.7335283897
Li          0.6958768202        2.0115848441       -5.5142478448
Li         -3.8874323262        4.6426549842        1.4867060210
Li          3.9139504713        4.4917256052        8.5355606676
Li         -5.2038098503        5.5800214097       10.9614587852
Li         -1.8471367079       12.5409613719       -0.1187008440
Li         -2.2291384376        0.1574588878        8.8491020342
Li         -9.0523115733        0.5922281165        2.0000378107
Li          0.4253776004       -5.2204419724       -6.5428608389
Li         -2.1648307479       11.6046368828        3.5926113336
Li         -1.3744871157        4.8185821419       -6.9667014087
Li          5.6574592550       -4.8620657217        6.4610535215
Li          7.6908428046       -7.6957143473        7.7457548838
Li          4.6303039946       -4.1268131372       -0.6374717640
Li         -1.1143992291       -1.7928214312        2.9328711866
Li          8.4169710014       -2.3768568858       -3.9208259100
Li         -5.3809977680        9.8671228915        4.9287814681
Li          7.9965146043        1.1934399590       -9.5177556436
Li          6.5896441575        1.7369551808        7.8682867076
Li         -0.0993930067        5.1159029457       -3.4056202988
Li         -2.4397648139       -9.8026900507       -2.7316283322
Li         -5.3924268986        1.8995743729      -11.2177994306
Li         -4.8191323281       11.8738409815       -2.4837495958
Li          2.1042157955       -4.3039609760        7.7684375559
Li          9.3986682197       -4.3674864832        6.9115585196
Li         -1.1037906732       -2.5158086218      -12.2873124392
Li         -6.6682144423       -1.0403775463       -0.3625816184
Li         -1.5014390775       -3.6145082234        8.9015508440
Li          3.7344309603       -7.6410507065       -1.7510205506
Li          0.8528900511       -4.5916947688        4.2506674694
Li          0.4331750715        0.3058845545        0.4741723766
Li          4.1363092745       -7.1711170157        9.1350304824
Li         -2.1135066919       -5.2084841636        1.8960679149
Li         -7.7432809131       -4.4632299239       -1.4432879273
Li         -0.8920515072        5.2715190777        3.8271997071
Li         -2.0722259008        7.4424140789        9.7722028092
Li          9.0748423020        3.6837325478       -1.2767475819
Li          7.2925132006       -1.4505393242        5.5904233699
Li         -9.4669502936       -6.7231516619        1.1135349944
Li         -2.7600929762       -6.8753300507       -5.1451516489
Li         -5.4708505822       -4.2148965473       -4.5367518742
Li          6.0096298738       -9.3875107248       -4.1780370925
Li          8.1042544651        8.6739832166       -3.3125064769
Li          2.3857049245       -2.4007722763        1.7320277848
Li          0.5235508991       -9.2666365567       -0.3880174402
Li         -3.4504769771        7.6200779896       -8.3625938104
Li          2.3753103444       10.8224501848       -5.0396389340
Li          1.9208123241      -10.9798693067        4.5621109490
Li          7.2807699385        4.9820521779       -9.6377603860
Li          4.4005547011        7.8860619257       -3.5893755735
Li          1.6797164758        0.7015010638        3.8394186484
Li          4.0665444715        1.3433378234       10.7605926625
Li          0.1020437310       -1.4453715979        6.3762744898
Li         -7.8856163026        1.6321457856       -8.3019892523
Li         -3.0321752126        8.1362466826        2.5505950082
Li         -0.6185847438       10.0631517007       -7.3692955261
Li        -11.6463456433       -2.1068326758       -4.2272734485
Li         -4.5729197690        1.7954999124       11.3069623144
Li          5.0293571503        4.3965985198        2.0162701364
Li          1.1371618793       13.1203103283        2.2534463642
Li          8.9493361344       -8.6575781502       -1.7784772806
Li         -5.2858750213       -9.5511662326        6.9638616916
Li         -0.4341321275      -12.6706758540       -1.4568290260
Li         -1.7869835405        1.2809658547      -12.4539722030
Li         -5.7123440820        1.4209120873        7.7008066777
Li          6.1749805499       -0.6829620233       -1.4859550957
Li          4.9141277436       -1.7133254472        8.6722977523
Li          1.3706763940        6.1807038733       10.8075124963
Li         -6.2265003792        5.0342140637       -9.1396404772
Li         -1.7540064761        4.3098950291       12.0604410425
Li          3.3214337527       -4.0197327568       11.2236820699
Li         10.6794102749        5.8236712819       -3.9504277083
Li         -2.6915421659       -3.9239952302        5.4070415692
Li         -7.4338196974       -8.2055936044        4.0671627534
Li          2.8597175206       -7.4044842246        5.5630820668
Li          2.9880302463        9.4016605069       -8.5672231560
Li         -9.3354003990       -1.8209137401       -7.2981399911
Li         -8.0366917409       10.1618582936       -1.1747621265
Li         -1.7019371453      -10.3468218933        5.8044529016
Li        -12.6615238605       -0.0819191351        1.5924711902
Li         -3.1944554463        6.9613024706        6.1862432957
Li         -4.9506310390        5.3709360456       -5.6542123153
Li         -3.0513017607       -3.8768739709       -7.5085191966
Li          5.7226705878        2.8431582152       -7.0697768210
Li         -8.8406079145        1.6866929049       -1.7053391185
Li        -10.8035496001       -1.5829931675        4.6125264333
Li         -5.2042091354        2.3366946750       -1.2809385818
Li          0.7960711899       12.0996060872        5.9260749106
Li        -12.4509234528        1.0145120832       -2.1058199428
Li         -2.3047716701       -8.9262890404        9.3328236627
Li         -6.0624764178      -10.5738259612       -3.1608398370
Li         11.6636523245       -4.0412185793        3.7594627851
Li        -10.2938407473       -1.7164966800       -0.7729569624
Li          5.9629998614       -1.7861243337        2.1176663654
Li         -0.5758688607        2.2816606718        6.2235680496
Li          0.2634769061        9.7387946671        1.2544783771
Li         -9.3647400113        7.8337927724       -3.9457635243
Li        -11.3514947831       -5.1284974199       -1.8418500053
Li         -7.9946262933        3.0753817524       10.0776782123
Li         -5.9816705975        7.4031680538        0.1659212709
Li         -5.4134883270        1.2532308926        2.3897624222
Li         -6.1999564293        6.3167831612        3.8331670206
Li         -2.8771456643        2.6273302059       -4.2800094940
Li         10.6258032612       -5.2748767163       -2.7093582809
Li         -0.8215128364       -5.6407301703      -10.0636558568
Li          3.4318296402        4.4412177199       -4.5738707338
Li         -4.0387953297      -12.0457553239       -0.2214821501
Li         -2.8733678211        3.9208777741        8.5884957759
Li          2.2358571292        4.1386917553       -8.1206468517
Li         -1.7850130724        1.8932054536        2.7721342191
Li         -7.3068026767        5.0763177729       -2.6171609797
Li         -5.7020225870       -1.1478139219       -6.8474746863
Li          4.7802448383       -2.9914817734       -4.2462916795
Li         -4.2901625359       -6.0907900278        7.9421460777
Li          6.9153538674       -4.6156752082        9.8984512109
Li          3.6254599891        7.5204376595        6.1886422716
Li         -5.7033110587        8.4146899674       -3.4987450925
