283

Li          6.9574520584       -7.6495659924        7.0556128241
Li         -5.4744433815       -6.4288137504        1.8885958881
Li         -5.3345605637        8.8321627300        1.9068794882
Li          5.8600437767       -2.6216201948        4.8984758751
Li          6.9688793345       -0.8456952474        1.8801216208
Li          6.5690618776       -2.5785154743       -1.5854077192
Li         -1.6508936297       -7.4457082395      -10.0251471450
Li          2.7242387795       -2.4745006472      -10.3410948994
Li         -0.5065795498      -11.8040076189        2.3418060329
Li          0.0705564206        4.9425272791       12.0182956323
Li          4.2336737349       11.3103335749       -5.1104108866
Li         -8.8766354669        8.4504008877        2.9928061110
Li          6.5413665960       -3.7713553241       -5.0471962566
Li          7.9852795402        3.4485339391       -3.9681366865
Li         -7.1858297125       -0.3644564187        5.6876677171
Li         -5.5246487584        0.1354490738       -1.3067601145
Li          1.7745551716        5.3765593557       -4.2603046995
Li          8.4214791040        7.2731913179        6.8719986462
Li         -8.0000306520        9.7295838691       -0.5462001242
Li         -0.1582659860        8.5476433775       -3.7033189719
Li          6.5049959346        6.2721538059       -1.8216993377
Li          4.5768713704        2.9803914916       -3.0494402974
Li         -8.3089393786       -4.2603094552       -7.8385542748
Li          0.1497118240       -4.6043213989       -8.4547437030
Li          7.5941337464       -7.3913546737        0.7228941115
Li          6.1996290660        5.2012554151       -8.8774581282
Li          0.1331209805       11.6450806322        4.3210623890
Li          4.1714036507       -0.3678948873       11.8487889088
Li         -8.3132845449       -9.1981040589       -3.2922193591
Li          2.9384106792       -3.1255882027       -0.7908003264
Li         -2.1762399951        3.5902993662        4.1356696048
Li          2.2933492745       -3.8367950932        4.9468717969
Li          1.5841534287        3.4322688272        4.9276750280
Li         -6.5276464934       -6.3300574824       -1.8087066992
Li         -9.0778136485       -0.6076818353       -8.7944004650
Li         -9.6848494301        6.3014554194       -0.1068712762
Li          5.3603549470       11.3896993984       -1.3859396799
Li          6.0025610602      -11.1388411163        0.1853954512
Li         -4.8906264407        2.3511758811        1.7285366854
Li          7.8887949875       -0.1941955695       -4.8688176462
Li          3.3213351029      -10.1464890874       -6.5811737554
Li         -3.7186720025        5.1796817490       11.1940107296
Li          4.7598603666      -11.7791557161       -3.3810364048
Li          8.0377276829       -5.6647546350        4.0842097065
Li         11.6055163546        1.5646183934       -1.9147638326
Li          2.7501640884       11.6467948391        1.4754673517
Li          9.1522438346        3.4584724634        7.5729461927
Li        -10.4375481189        4.9548664308        3.4469959457
Li          7.1928638387        9.1805944061       -3.9661235841
Li          5.1721377543        9.0450254360        8.0202640195
Li        -10.6943953878       -0.8486044422        6.7554522475
Li         -3.1862648988       -0.0904333239      -11.9552941478
Li         -8.1729719347        0.9404844408       -3.7761306911
Li        -12.5404199586       -0.8327664900        0.7959757645
Li          1.8936369458        1.7907341871       -5.5927569164
Li          9.6586204270       -0.4487528164        8.1298276344
Li         -4.9541461284        7.4718751412        8.3523885497
Li        -11.7098589399       -4.4846162203        1.7713455075
Li         -6.2976906586       -1.1185307959        2.1513707057
Li          1.3804312270        9.4295416141        7.2914289833
Li         10.1053918176        7.0219358673       -2.7688966391
Li          6.0185256108        5.3491641775        9.0184997948
Li         -4.6842862016       -3.4690832558       -0.3292046899
Li         -4.5922510364        1.3815204819       -4.7404682393
Li          0.0176682656        5.6156499147      -10.4730312117
Li         -7.6381826589        3.2169847282       -0.7240053844
Li          9.5032632138       -2.0594350250        4.4432879596
Li          7.0467573150      -10.4193111672       -6.0708144108
Li         -6.1733992417       -9.3824009334        4.1051072599
Li          8.7755108621       -5.4583589055       -2.5008060482
Li         -2.5737803964       -8.7079846600        3.0153019648
Li         -7.2112810299        2.2081688614       -7.2460695246
Li         -1.3758059114       -0.1647431754       -5.8633590929
Li         -8.4093221340        1.9007290567        2.8045543873
Li         -5.8277614287       -2.2200878650      -10.0296312715
Li          8.5740112860       -6.9364671517       -5.9430467538
Li          3.8868512525       11.3901873300        5.1821033461
Li         -4.7870261317       -8.6044167319       -4.3204493977
Li         -0.6811626982        2.7209573733       -8.1934142531
Li          1.8904401029       -1.7580544042       -6.8117656385
Li         -0.0928870567        9.1696621024       -9.0194676940
Li          4.4954423805       -0.5979158158       -4.0852302251
Li         -1.7526915235        2.1092276546       10.4468536848
Li          7.2067219083        0.7012791291        5.8608951335
Li         -4.9980617081       -9.2699654672        7.7404503826
Li          6.8075618391        1.5847995880        9.8457587774
Li        -10.1289559585       -1.9402008155       -5.3370583396
Li          2.2394070399        2.6778647780        1.3331019574
Li          8.3272960123        9.2002499138       -0.2235735705
Li          1.1133713036       -1.0595537247       -3.3401686278
Li          4.7023288707        1.6648000387        3.5988059890
Li         -6.9065750139        5.3958462736        2.3660701077
Li         -7.1306685976       -4.0117962932        4.4099790391
Li          0.8445977092       -0.3184049122        0.0991021335
Li          1.6194958540       11.6552719976       -2.2609360386
Li          0.8385959044       -5.9213873535       -1.9623190300
Li          9.3408128350        4.1402545986       -0.6710551556
Li          2.4185776507       -0.2844467398        5.8331423778
Li         -5.4440504902      -11.5513755221       -2.1462956371
Li         -3.6409464244       -3.4735519259        3.3387413469
Li          3.4513176799        3.9614819137      -11.3402952929
Li          2.9162386331        5.5649382061       -0.7642115554
Li         -7.2927048055       -9.3535923203        0.4076359762
Li         12.0049191444        3.1655284949        1.6507191438
Li         11.4218407555        4.0559955821       -4.7032698740
Li         10.9384642394        1.3834389884        4.9311643441
Li         -3.2844772850        3.5737094478      -10.7547618205
Li          0.3051098451        5.6824473859        2.1236761853
Li          1.6573834957       -6.7380685055        7.1290942713
Li         -4.1714109295        6.6468619840        4.8083321530
Li         -9.0279722175       -6.9871818823        2.9619372177
Li         -4.4927755626        0.8824930186        8.1007428263
Li         -2.7575760921        8.7260585439       -0.9063529700
Li          0.2019273135       -1.6536891133      -12.9428778750
Li          7.3690441792       -2.1709362112       10.6514051095
Li         -2.1410058861       11.6480500215       -3.1211457251
Li          7.5931029966        6.1952459950        1.9162826094
Li         -5.3219826045       -2.0110427547       10.5218103576
Li         -2.8189872422      -11.6781606706       -4.9587998356
Li          5.0620255037       -6.0035444984       -1.6669780519
Li          0.4860623030       11.4163993735       -5.9316689183
Li         -9.8241474403       -1.6166108377        3.2232331162
Li          5.4318776491        2.2701062805       -6.5814596857
Li         -3.1983888979       -3.0285180611       -7.4885008391
Li          0.9895913342       -9.6645092859        9.2300420830
Li          4.7126241718       -5.4828588040      -11.2581493395
Li         -0.9506439533        1.3534542995        6.9017006245
Li          8.3830725686        2.4488479278        2.6263089627
Li         10.2263878292       -1.9188425771       -2.3224174049
Li          6.3215903727        1.5992852195      -10.1209462311
Li          3.8296192094       -9.7063082024        6.4899059375
Li         -1.7524535736       -1.4713194174        9.3452935700
Li         -0.6172023808       -0.9197785496       -9.4185890791
Li         -9.3217278156        2.7339886047        6.4171492340
Li          0.8227387745       -2.3779558450       12.0409583888
Li         -7.8514458752       -6.9176979974        6.6361795331
Li         -7.4701980976       -7.8813180028       -6.8198744599
Li         -3.6480889360        0.1233479397        4.5713434232
Li         -1.9845432967        0.5601351683       -2.2655899124
Li         -5.4600736167        9.6943186849       -3.4446496824
Li         -2.4149786591        9.6491461105        6.4186302970
Li         -1.6575488587      -11.8301838036       -1.2993557721
Li         10.0313168386       -3.3446069724       -5.7917685009
Li         -6.1478962283        9.6965779009        5.4405334855
Li          5.0429228167       -7.2562139840       -5.1246529156
Li          4.4054494340       -6.6692147045        4.3365005033
Li         -4.7433653285       11.7803426194       -0.2829679862
Li         -2.7963441307       -0.6384378788        1.0890267595
Li         -0.4258127742       -9.8641264955       -7.2603427034
Li         -0.4295530107        6.5399430014        5.7204170920
Li         -7.4372547272       -2.7282175247       -2.8353908023
Li         -1.1292349875       -3.0032120215       -1.2669896099
Li         -2.4720505432       -3.7987082335      -11.1059863690
Li         11.1727074542        6.8812997618        0.9555612277
Li         -3.3706947764        7.1608616776       -9.3207197539
Li         -3.1895644814      -11.6074969748        5.1906456312
Li          5.7932914871        8.2776863943        4.4429876440
Li          4.7580344746       -4.7824146378        7.6080550292
Li          1.8674473401       -5.6059256517        1.6031985823
Li         -2.9708760327        4.4025873428        7.6657408789
Li          1.2184278828       -8.6067478035        3.7864585718
Li         -5.6516274101       -5.0362632672       -5.3377035867
Li         -1.0223585870       -8.7851990385       -3.4787439008
Li         -1.3665873948        2.7056354902        0.6535096232
Li          0.8533275079        1.2936005149       12.9532086343
Li          3.5481739573        0.3423747108      -12.6031561961
Li          5.9735264754        8.7835905160       -7.5198932720
Li         -3.4422288095        6.5801274730       -4.0256510852
Li          3.9836833938        5.4613349641        2.8711689948
Li          6.5659416666        4.5030446335        5.2317097725
Li         -2.8155539554        9.5061055445       -6.2913786634
Li          3.3040922957        7.5543529891      -10.0040957836
Li          0.9673165243        8.6956630322       -0.0450520490
Li          1.3473120784       -7.0191311022       -5.7178814359
Li          6.4681008826       11.2885649863        2.3408608992
Li         -1.4292963763        3.4167245139       -4.5545210947
Li         -3.8075953342       -2.2185083119       -3.7950531115
Li          4.7004292581        8.4455186656        0.7743798248
Li         -1.6645857009       -5.0770944186        8.0479917555
Li         -4.3246237863      -11.6277450635        1.5255627271
Li          1.5968528399        0.5089075263        9.3990958634
Li        -11.7139855821        0.4611404951       -2.7407981978
Li          3.5830723991        8.4680923910       -2.8924193240
Li          9.1243525732       -3.7956739897        0.9314448620
Li         -6.6175238557        5.0929992982       -9.5357203440
Li          5.3842292262       -1.3166381865       -7.6697619865
Li          0.1293932612        1.9849438039      -11.7844160717
Li          2.5992922916        4.6839182206       -7.8012741071
Li         -2.5065241001       -0.6802551442       12.8448567544
Li         -5.0369399018       -5.9012884086       -9.0487147997
Li         -0.6074603792       -3.8639059996       -4.8930500542
Li          9.3396815671        8.9814217429        3.5440944011
Li         -1.1783639545        7.3542365177        9.3040030369
Li          4.2076573540       -7.7058227805        9.7636915563
Li         -9.0468852768       -0.3401115540       -0.2740983055
Li          7.1842233424       -8.9284234632       -2.6593133267
Li         -0.7836122998        6.3058362653       -6.7983518246
Li        -10.7791106565        1.7481419210       -6.2543224377
Li          4.1288134281       -4.0754716983       11.1304134498
Li          3.8962096519       -4.8589065368       -7.7351360657
Li         -1.8828940833       -5.8126213745        0.8689905853
Li         10.2888759851        5.2223322489        4.3247906257
Li          5.8952304343       -7.9440937568       -8.6432316147
Li          3.4843140295        3.3478554748       11.0516279273
Li         -6.5808137552        4.0031526026        8.8701845341
Li         -1.0105895012       11.8090117899        0.5961902028
Li        -10.3212879566        4.0553708360       -3.2108754071
Li          8.7472103388        6.3986011820       -6.2309344390
Li          0.9630183088      -11.7884520905       -4.1303801430
Li         -4.0213686266        3.6142428284       -1.7599544774
Li          4.3626944278        0.2571693606       -0.5885618347
Li         -2.3765646280       -6.6728318009       -6.4460965565
Li         -8.6686345254        7.5334661383       -3.6448867275
Li          2.1336590353       -7.7689929405       -9.3473782242
Li          3.0769754580       -4.1207883912       -4.2319727195
Li         -3.3460259400        5.7553790550        1.2717499641
Li          7.9491806171        0.8309655175       -1.2995048368
Li         -8.2108332236       -3.9905731814        0.7094021163
Li         -2.3483763209       -7.9867683209       10.2177755137
Li         -2.4712571389       -4.3599666658       11.6001973020
Li         -6.0878672407        7.4511947838       -6.5479905879
Li         11.3204927093        0.3243195734       -5.5087843290
Li         -6.0256207855        6.6789249154       -1.1678056163
Li          3.3501220700      -11.4695035112        3.0868349331
Li         -5.7622076626        3.1839992100        5.3012754832
Li         -7.7969730767        6.2711434419        5.9772069290
Li          7.5087860478       -4.4545903689       -8.6144476744
Li         -0.9544127195       -2.1734212968        5.8311629780
Li         -9.3076201720       -5.6098999046       -4.3401911208
Li         -3.6168481638       11.7838970985        3.4234338366
Li         10.6131603145       -0.2932101483        1.2444477754
Li         -0.1697396522       -2.8533064239        2.3403788617
Li         -0.0897530729        0.6050649455        3.4390923580
Li         -3.6694181566       -8.6883161808       -0.6457895666
Li        -10.0541513009       -6.8702210758       -0.7617054348
Li          8.2945722248       -3.9528505518        7.4807576675
Li         -9.2581459993        5.2723359884       -6.7113281003
Li        -10.6196489740       -4.4998614234        5.4651342018
Li         -8.0374097191       -3.2883602173        8.0478560999
Li         -4.0175429011        4.2749825965       -7.0563998381
Li         -1.5013242253       -8.6404862788        6.6417287020
Li          3.3258290884       -1.4667141961        2.4713510161
Li          0.8211650102        4.1873492037        8.4841849718
Li          8.9094696586       -0.8601338242       -8.4477188975
Li         -5.2745756936        1.6751823246       11.6177630449
Li         -2.9704938878       -5.7550364668       -2.7883527324
Li         -6.6518032577        4.4640313549       -4.2294386501
Li         -1.6419628108        8.7453774721        2.7911112060
Li         -5.2414159505       -5.6842491785        9.2136866245
Li          3.3443486563        6.2488775550        6.4875240995
Li         -0.7796216819        5.6189728856       -1.5096124430
Li          4.1995773598        2.5436336790        7.3992048956
Li          1.5793800782       -3.0801568112        8.5013060386
Li        -11.2089536011        2.7580805022        0.3393735326
Li          6.3108907387       -1.9900204184      -11.1997558072
Li         -3.9401587683        0.6564178790       -8.3787204061
Li          3.9046885555       -8.3937197923        0.9342632395
Li          6.5440041676       -9.4760543421        3.6589504464
Li          2.4562078615        8.2880269533       -6.4595650646
Li          2.6392048185        7.0123378840       10.0585147763
Li          0.9306764653       -5.3094132919      -11.9919385198
Li         -6.4576297021       -1.4245719970       -6.3139121834
Li          5.2509142431        5.9134451736       -5.2783740177
Li         -4.3475224293       -6.3625143612        5.5622566754
Li          0.1471202542       -8.8333305146        0.1929567575
Li          4.9376838575       -1.1829920491        8.2179509561
Li          8.9964441837        2.7722545723       -7.4711248766
Li          5.7773018185        3.4028775494        0.3683641537
Li         -8.0195290926        0.4167812128        9.2231879441
Li          5.4654325718       -4.4211441468        1.6451709134
Li        -11.0117053586       -3.2409271645       -1.7930192398
Li        -11.9029620414        1.4139312241        3.8746125951
Li         -6.5361039740        1.4733517598      -10.8490189206
Li          1.1748109362        2.4863633372       -2.1187937288
Li         -4.1739026377       -9.5135957925       -7.9101773896
Li         -0.8547848276       -5.7118591319        4.4714857892
Li          2.8280973974       -8.8365672476       -2.6546989844
Li          0.6202806326      -11.5962599245        5.9178472073
Li          2.7027339774        1.0928095877       -9.1051779820
Li          0.8885039554       -6.0570879196       10.7478133638
Li         -4.4994219010       -2.7677225294        6.9391832899
Li          2.2103822129      -11.8147339691       -0.4869310248
Li          2.0851706451        8.5664538020        3.6362071578
