300

Li         12.9377799406       -0.3552086676        2.0625857888
Li        -1.3952895159       -0.0171468983      -14.5208059538
Li         4.1563754211        5.8548564471       10.3162494982
Li         4.7137437776        6.1804344848       -9.2545475950
Li        10.4802218496        1.8472986848       -7.6074544529
Li         1.1294403508        6.1282944004       -0.1217917772
Li         1.3993057725       -2.3972979200       -9.1430974684
Li         1.0384107603        0.0602396007       10.8713347717
Li        -6.7502401956        9.6650068339       -2.7201761984
Li         9.5531490629       -6.9420586498        2.4534693201
Li        -7.9838220317       -3.7140709593       -0.8867518425
Li        -3.9283733172        3.8515353859       -2.9088352916
Li        -4.4532417726       -9.3340782365        7.0915526469
Li         0.0184188213       -5.3263039976       -7.0534131221
Li        -1.7121459853       -8.2782369547       -8.5947795582
Li         5.4251601093       -2.9425487455       -0.5057423805
Li         6.8248659734        9.1388636760       -4.0197782264
Li       -11.8194417505        2.2436389428        1.1535528906
Li         4.4247119895       -0.5384742621       12.3049660741
Li       -10.1332239142       -7.1022799398        4.2943142435
Li        -2.4544967517        7.6960022397        5.1648954556
Li        -4.7184544468       -6.1272061444        9.2666326007
Li         8.5333729489        8.0982003804        5.7655444641
Li        -2.2928627948      -12.3129221355        0.2623242726
Li         4.5749709040       11.9538930850        2.8269169645
Li        11.2346559290       -0.1736629465       -4.4144213357
Li        -4.5949249088        1.0341598245        7.5143709750
Li        -2.7334797467       -1.3455795281        1.8825052878
Li        -3.8273981442        4.8103400472        7.3496400763
Li         7.3030540566        5.7289284001       -2.3519050143
Li         4.9972152362        6.0925173023       -5.4401971250
Li        11.7627062293        3.6446079421       -4.4312304365
Li         5.1141020665      -10.3302896325        6.1493037913
Li         2.1983076882        4.6535777171       -3.4984889669
Li        -5.0007119758       -6.0456801565        5.4538018248
Li         9.9939347308       -1.7461672333        3.9454046211
Li         1.3337008921        8.1919141879        4.8003058376
Li        -1.7272957619        9.6935465367       -4.7620452868
Li       -12.9183073154        0.4136234716       -2.0558413124
Li        -5.9262083118        7.2098725668        9.1970354872
Li        -2.2049377782       -4.6009444660        3.5094570815
Li        -9.0770600241       -8.6049868180        0.8987066302
Li       -10.8623333276       -5.1584295120        1.0379151722
Li         4.7542747046       -8.0058942054       -2.0659020962
Li         9.5349188531        0.2454622589        0.7258949174
Li         6.8526597387      -10.4034267462       -3.9165759410
Li        -2.7862455635       -2.9140748082      -12.4623732725
Li        -9.0788792335        5.7925859222        7.4606106077
Li        -1.6836250884       -2.7967770632       -1.4372192035
Li         5.5039696923        2.3562029642        6.5424168104
Li         8.9589646270        2.2336552683       -2.5012553282
Li        -5.1208550640       10.3824078049       -6.1375987563
Li         5.0558423162        2.3036124420        2.7925066036
Li         7.8034881376        7.5013150064       -7.3679477161
Li        -4.0895825869        0.6055072280       -8.6261536564
Li        -0.0202595988       12.6784770938       -3.3276394183
Li        -0.0030560594        0.0273942518        0.0055069451
Li         6.2137305866       -7.0790015613       -5.4728323890
Li        -0.3451592859        0.0159021671       -3.5646785643
Li         8.8271422370       -3.5685330298        0.8052700327
Li        -5.0608935319       -2.2500196987       -2.7813265936
Li         0.6857392664        0.0485996733        7.1911395557
Li        -7.2839202362       -5.2300330274       -8.0700654983
Li       -11.7948131116       -3.5929447189        4.4429399643
Li        -3.7007152760        0.6097388097       -4.9474971614
Li        -0.9275948523        3.2470916265       -5.2213245376
Li        12.3897258070        1.6509460774       -1.1899043168
Li         7.3084126489       -4.4342969570        4.2691268709
Li        -3.4334010041      -10.9440420442        3.7108731762
Li        10.5257371086       -3.9940247544       -4.3348938190
Li       -11.4402850467       -3.1420327748       -2.2321038349
Li         4.9140952084        2.8297176243      -11.2022838592
Li        -3.0786693492       11.1353625232        3.6096339012
Li         2.2867713355       12.3665968410       -0.2514562873
Li         3.2891386220       -0.5571606861        1.3028663348
Li        -5.4943269663       -2.7330626818        3.7805106001
Li        -4.8596794032        1.0055747561        3.7468123771
Li        -8.9458004730       -1.7200312239       -7.9214220880
Li         5.4929175547        2.7889702720       -3.7728755946
Li         1.2780835898       -3.2113661980        8.9115974354
Li         6.2334131036        7.2040261540        1.0257336011
Li        -9.5588211328        6.9940793439       -2.4429541124
Li        11.8140352710       -2.1898732558       -1.1445402529
Li        -7.9415356033        7.7624750976       -5.8869161651
Li         8.4536572734        1.7368794328        4.1406297110
Li         4.5872588339       -0.9812806632       -7.5044122212
Li        -3.5013783455        4.8523820570       11.0532590544
Li        -1.2852684201        3.2725308689       -8.9030620381
Li        -5.3708271050       11.3641427542        0.4855379698
Li         1.7058085656        8.3316427617        8.6053125909
Li        10.1077477055        7.1379750591       -4.2817708100
Li         1.0491061716       -2.4119900498      -12.8315015197
Li        -6.2194224587        7.1327731157        5.4834115363
Li        -8.4570121857       -1.6763205391       -4.1269651540
Li        -8.3599965873        1.6278422732        2.4716755676
Li         0.9600793120       -8.6057901866       -1.7300032929
Li        -0.7499145414       10.6355090909        6.6744913035
Li         9.0728957071       -5.7367442465       -7.4495700568
Li        11.4347686081        3.1976879388        2.2423769440
Li        -2.4304688902       -2.8986525647       -8.7745060669
Li        10.9736594987       -5.9801540137       -1.0310472774
Li       -10.5073295410       -1.7889957317        7.6345583465
Li       -11.1131477712       -5.5568915058        7.6432869306
Li         2.7711067423        2.9556641692       12.4513383898
Li        -5.4303523406        2.9953201972        0.5168159614
Li        -8.8297999031        3.6169808348       -0.7992217981
Li        12.2289734983       -4.1748522090        2.1420952945
Li       -10.5316453640        4.0478981841        4.3457244432
Li        -7.3117569624       -5.6812706564        2.3585361679
Li        -3.2579509377        8.9159339571       -1.3494574734
Li        -0.5698885397        3.2046933400       -1.5623185911
Li        -7.4445509292       -0.3696203662        9.5104907759
Li         7.4731735748       -1.1517736953       10.0235666872
Li         3.9232937168       -3.7986997824        2.9196539043
Li         4.3507349549       -3.8574824517        6.6718061951
Li        -1.5531316108       -4.7010548878       11.0101151936
Li        -3.7885436659       -5.7542696256       -6.6065315846
Li         1.3158267198        8.0393125202       -8.9344504419
Li        -5.5083190204       -2.3028902138       -6.5327777967
Li        11.8549108934        1.1384380126        5.4823353429
Li         4.2740523874       -1.0009544924      -11.2431095507
Li        -0.3335954667       -5.3830987343      -10.7882021542
Li        -4.1643718813       -5.8044687371      -10.3059519308
Li        -4.7601930712        8.0595685289        2.0767940912
Li        -1.6393923194        3.2662442172      -12.5910682322
Li        -1.1356591293       -6.0747766707        0.1327359724
Li       -10.6972892107        5.0793829526       -5.5873670573
Li        -2.6574164775        5.6325580345        0.2426688210
Li        -7.0857814843        1.2096661656       -6.3116520655
Li         2.0542754093        2.9081816236        5.1039399707
Li       -10.2315003191       -4.5774010126       -5.6300930416
Li        10.4768515260       -1.7580805848        7.6753706888
Li         0.9214989228       -3.1933329756        5.2311059736
Li        -7.9637131122      -10.0507294440       -2.4989919647
Li        -7.3144910420        4.4807947227       -4.2552750527
Li         7.9350644362       -7.7123294059        5.8992569073
Li        -6.1170562283        6.3408824143       -1.0971719872
Li        -1.0420631206       -0.0059908001      -10.8355025079
Li         8.3075298151        4.2040592274       -5.7077737123
Li         2.1238915457       -7.7760624799       -8.9639738148
Li         7.0775982162       -1.1553530744        6.3304512350
Li         3.2520828419       -8.8622308628        1.3602366101
Li         6.9755790187       -3.3368544596       -5.6010899032
Li        -1.7332586508        2.4123566300        5.4684657504
Li         5.2290417177        2.8217965719       -7.4968742807
Li        -6.6293249377        1.2020505821       -2.6061877615
Li         6.8099571166        5.1975975166        4.2849284602
Li        10.7080322044       -5.0418769577        5.6109962356
Li        -9.6547899164        7.7978013795        4.2032123696
Li        -1.5576944899       12.0024068236        0.1406573015
Li        -8.2944962751       -4.1402995123        5.7055496738
Li         2.4269717704        1.4119128655       -5.5372475614
Li         1.1373194178       -6.3656848049        3.1585408957
Li        10.8554370182        5.2120009282       -1.0287585834
Li         6.7298923116       -3.3954886198       -9.4188048902
Li        -1.4004054795        2.4455019871        9.1512325338
Li         1.6417162695        7.9280531048       -5.1240898952
Li         1.6777417490        2.8502830737        1.4480128803
Li         1.7578924672        1.4076566962      -12.9110378103
Li         1.8841378872        4.7276023073       -7.2628088497
Li        -4.9743788849        7.2158629945       -8.3290588846
Li         0.7567667981       11.6374584904        3.2404979639
Li        -4.4478210976        0.5952681743      -12.3137778133
Li        -3.2975082322        0.6109742558       -1.2930858065
Li         8.0353553630        4.2323437218       -9.4234046033
Li         8.3542218367       -1.5752625407       -2.4591837418
Li         2.8489156829        9.0556748461        1.3444665497
Li        -4.1142078906        4.7256726387        3.6281860443
Li         0.5639086690       -3.1511719214        1.5729834628
Li         0.7439081788      -10.5817867787       -6.6638200196
Li         4.1082447390       -4.6720848861       -3.6174255290
Li        -2.0945902735        9.7740365986       -8.4688669473
Li         2.4207420515        2.9457273357        8.7834715835
Li        -0.9660920701        8.6596813555        1.7408370816
Li         5.5069965519        8.7065903009        8.0966631670
Li        -1.5126141176        6.5099154756       -6.8617889800
Li        -4.5405431430        7.1187349390       -4.5290875534
Li       -10.9782833387        6.0313524517        1.0391720621
Li         4.7372001577       -3.8775896873       10.4047107582
Li        -3.0666184781      -11.0369688474       -6.2698471089
Li        -9.5369433221       -0.1876389156       -0.7211428785
Li        -5.1146889282       -8.5620014368       -4.3825446247
Li         5.3649508814      -11.3104410423       -0.4746915876
Li         5.7418628627       10.6324281775       -0.5999536374
Li         1.7271310042       -2.3594366107       -5.4586451721
Li         7.6756129219        0.4355969642       -5.6796263893
Li         9.8169485991       -1.9528642411       -7.5596273849
Li         9.6491812765       -7.7450312942       -4.1941208073
Li        -7.7833571752        4.5444420901       -8.0517825573
Li       -10.4688355880        1.8099650630       -7.6424954229
Li        -0.7627274413      -11.5836340889       -3.2296581346
Li        -0.5690715875       -9.3624565298        1.7279984529
Li        -2.4332669108       -1.3587057770        5.5477861895
Li        -5.7482253927      -10.5790368473        0.6105459608
Li        -6.9818882501        3.3921113551        5.6123052053
Li        -2.0601199925       -2.8552244297       -5.0941464757
Li       -10.0229786658        1.8044171801       -3.9435801933
Li         0.0143377449      -12.6247706182        3.3383762574
Li         3.4274615313       10.9973671538       -3.6997140079
Li        -3.3835267922       -5.6528300485       -2.8963905747
Li        -5.5142494998       -8.6543927206       -8.0856292456
Li        -1.8731336503        6.5428427746      -10.5629095776
Li        10.2262035580        4.6349975191        5.6421659284
Li         2.7295258992        1.3999716588       -1.8731490989
Li         5.1083549217        8.6156891800        4.3931859720
Li        -8.5398719096       -8.0424267372       -5.7544540122
Li         3.7817856008        5.8064562657        6.6173051351
Li        -6.7358742471        3.4493749637        9.4295367617
Li        -4.7444851349        3.9329056092      -10.3937240624
Li         1.5516835996      -11.9485746968       -0.1298844497
Li         7.4388088242        0.4248735530       -9.4983351869
Li        -4.2781725492        1.0545197424       11.2538452054
Li         3.9791568345        7.6625750326       -2.0688672248
Li        -7.4839552167        1.2066919485      -10.0090515286
Li         7.7765152240       -4.4914939246        8.0640711543
Li         7.9572768061       10.1033921038        2.5081645245
Li         7.9782297339        3.7666747905        0.8992260357
Li         3.4980416177       -4.8013844899      -11.0434103306
Li         1.5479935053        4.7566527859      -10.9993345977
Li         0.3277751760        5.4351446294       10.7985184948
Li         3.3775310783        5.7064140289        2.9071543455
Li        -7.5580299367        5.3985921496        2.3530711044
Li        -4.5543931365       10.0937571314        7.0136251704
Li        -1.0474234139        2.4557815702       12.8188474342
Li         7.5524109453       -5.3460450568       -2.3434660766
Li         2.6517159516       -5.5789729295       -0.2317747580
Li        -6.8307832288       -9.0868734897        4.0303186071
Li         8.9394325389        1.7752016985        7.9336369523
Li         3.6950910182       -0.5564444617        4.9579706200
Li         2.1070334017        1.4167050412       -9.2225380075
Li         1.8665661221       -6.4850438319       10.5732809790
Li        -9.7784034217       -6.6520336443       -2.3807504306
Li       -12.2115602990        4.2161605436       -2.1336810549
Li         8.2655774015       -8.7444948008       -0.7381934521
Li         2.0409008123       -2.3092006486       -1.7956810726
Li        -1.7521104694       -1.3470801421       12.8994460731
Li         4.9684411255       -7.1620060420        8.3399611023
Li        -6.8159654318       -5.1423016278       -4.2737422458
Li        13.3923358613       -2.3488865139        5.2847902955
Li       -11.2416937553        0.2291190374        4.4248413047
Li         4.8528963469       -0.9522082541       -3.7354651084
Li        -4.9151539203       -2.7735256201       11.2158645188
Li         4.4838627409        4.2931874135       -0.4373635183
Li        -2.1295284281        7.8295597803        8.9744389955
Li         6.6178327939       -1.1474640567        2.6147922433
Li         9.7722955346        6.7058811764        2.3916005254
Li         3.0606458047       11.0906397614        6.2807267870
Li        -1.6468567012       -7.8757688702        5.1352768621
Li         4.5341806314       -7.0666114701        4.5403912884
Li        -1.3396405345       -8.1382000343       -4.7896230928
Li        -0.6911469188        0.0050293192       -7.1743858527
Li         2.4484314705       -7.6423046954       -5.1542007580
Li        -2.8549518594       -9.0020149220       -1.3335624193
Li        -6.1309677687       -0.7756465770        0.5953232913
Li         0.3662564766       -5.2185978295       -3.2927727001
Li        -4.4903222629       -4.2405810614        0.4485595680
Li        -9.8243531510        2.0101854537        7.5719037405
Li        -5.9073468653       -2.3337988654      -10.2632153280
Li        -0.3722699804        5.2722320730        3.3032470099
Li        -3.9863597695       -7.6092605375        2.0805228497
Li        -7.6853160088       -0.3758683153        5.6939029695
Li        -1.3218869722       -7.9854707464        8.9453652074
Li         9.0699096135        8.6558558779       -0.8903373284
Li        -1.1432948803        6.4192657862       -3.1477493628
Li         6.1124746275       -6.2872257670        1.1085743664
Li        -2.1056677617       -1.3594140924        9.2318305973
Li         4.5484069963      -10.0400878843       -7.0027445893
Li         3.8328569178      -12.1248897646        2.9708681723
Li        -7.8188135627       -7.4672200209        7.3940872901
Li         2.0884031748       -9.7183105814        8.4803762992
Li        -5.2316077613       -2.7667471506        7.5151340969
Li        -4.5808844069      -11.9001880349       -2.8161700194
Li         5.9218421681       -7.1572973246       -9.1862798162
Li         7.2778608461        5.2839088034        8.0808046246
Li        -8.2711757865        8.7979850801        0.7487107512
Li         6.7443642706       -9.6116746018        2.7313280007
Li        -6.2396864454       -7.1515636471       -1.0160649119
Li         4.0754167834       -0.5502502953        8.6369403865
Li        -1.0627008800      -11.1388928158        6.7437817986
Li         4.4489034835        9.3845045233       -7.0794157292
Li         3.0726250637      -11.0815496205       -3.5987864156
Li        -4.3551937493        3.9108126892       -6.6623135216
Li       -11.8389872506       -1.0745025579       -5.4593741442
Li        -2.0469448571        2.3626855399        1.8064900431
Li       -12.3966522179       -1.5938313112        1.1956258318
Li         0.5629601122        9.4161283571       -1.7171954169
Li        -6.8587354294       10.4571098218        3.9273373846
Li        -0.0245824591        5.3802110451        7.0626961794
Li         5.8996050811        2.3868894851       10.2742990229
Li         1.5064252901       -6.4545897465        6.8727336778
Li        -3.8389267016       12.1785764712       -2.9601175838
Li         6.1250773871        0.8287887995       -0.5842426144
Li         3.8225165029       -4.7579082542       -7.3390474112
Li         1.0580069860       11.1912811586       -6.7322740345
Li         1.7213496755       -9.6399196368        4.7732077227
Li        -8.0500279078       -4.1834282726        9.4584648876
Li         1.6293499473       -3.1982118330       12.5792523449
Li         0.3394544796        0.0374924656        3.5780282123
Li        -8.9709031801       -2.1771292502        2.5069619412
Li        -1.8917311380       -4.6746816109        7.2726038451
