301

Li        -12.7614104021        4.9626659224        4.9695423566
Li         7.4360192215       -1.3266074526        5.8931044865
Li        -2.9060799146        8.8969661779       -1.9612549856
Li        -7.4249866112       -7.5607083577        7.6701661601
Li         4.6681434128       -1.1581926741      -12.2178976631
Li         0.9170672563        8.6926874906       -1.5030664648
Li         3.1344721283       10.5413700373        7.0979849425
Li         8.0250304181       -8.7183798633       -2.4162615556
Li        -9.9337480213       -8.2849335802        1.9510777750
Li         5.5058114169       10.3538013484       -5.8527117510
Li        10.4221558038       -0.5748596397        7.9534984549
Li         7.4356803294       -2.4401755526       -9.8512863036
Li        -6.3484905212        5.7718447036        4.1866314592
Li         6.3998450035       -9.0503741186       -5.9256297439
Li        -0.1514009150        8.3021261415       -8.7885798402
Li         0.4834978148        0.0356872134       -3.5704932140
Li         2.1500234706        4.0362025591       11.1724063432
Li        -6.1801329596        6.8792566473       -2.3983520948
Li        -2.5419354620       -4.0207125047       -7.4736289676
Li         8.4977534476        3.8487442048       -7.7178454840
Li         0.1689235961        9.6986217712        5.0060059909
Li        -4.5949631507        1.1655982293       12.1723620090
Li        -0.7982166229       -5.2842881523        3.1282857783
Li        -5.4812602565       -1.2475417283        2.5624153674
Li         0.0286775183        0.0065272446       -0.0134067190
Li        -1.5487544479       -0.6578427646      -13.0097583534
Li         4.7097559610       -4.0297320985        0.5533648837
Li         8.4448661710        7.4121942729        4.4803968614
Li        -1.3260042606       12.6100517477        3.2253043038
Li         3.6909489621       -7.8425462577       -8.4296344822
Li         6.0685005598        8.0678847190        7.4816807114
Li        -0.8138185164        6.4976272453       10.6983261415
Li         2.8015650426        2.5287415000       -4.9617952567
Li        -0.5416199998        2.8957812160       -9.1161417932
Li        -4.6595422079       -8.2772862277        0.9594744648
Li        -9.2091323412       -9.9631893843        5.3013890666
Li        -8.8976518396       -5.5100134786       -7.8280979421
Li       -10.1104179941        3.7228561001        7.4192986892
Li         1.4309500563       -9.3262395549       -1.5560976000
Li        11.6806005688        2.8127798277        1.4778398773
Li         6.3547319848       -2.4446770468       -2.4780188974
Li        -6.5711031434       -1.3412923690       10.0119774087
Li       -10.1947676663       -6.2769865576        5.2669575462
Li         4.7167852991        8.2834437298       -0.9901921778
Li         2.5998173425        4.0338870435        7.4465691432
Li        -9.5167087874        3.7051312073        3.7054523011
Li        -5.4143553563       -1.4606635225       -7.7395892931
Li         5.9828546722        4.7792568944        5.7573518973
Li        -0.0182939330       -3.1800393280       -1.6633932290
Li         4.4529806812       -2.0464901680        3.8273025178
Li        -5.9277304631       -4.7593789940       -5.7806258530
Li        -9.3413368437       -0.0571556112        7.6090229430
Li        -6.9205589200        5.8294660669        7.9671416939
Li        -9.5933630546        7.0344096018        5.4533560401
Li         4.4616492872      -11.7083454893        3.7659772668
Li        10.1526961248       -3.7051642227       -7.4240356906
Li         2.3850750037        5.7380434889        0.3361966244
Li        -7.4174254719        7.7028372515       -7.5294146286
Li         0.2078242273       -8.2892771704        8.7621081959
Li         4.5978139111        4.9374894639       -2.6421479112
Li        -6.2933545856        2.4555278673        2.4497220652
Li         0.1256026286       -2.9051949072       12.7417285284
Li        -3.5704598282        2.1754646325      -11.3366485413
Li        -8.9188549452        4.1578782861       -7.7782864412
Li        -2.8774049057       12.2156099836       -0.2846839138
Li        -1.2860631129       -5.4121282514        6.8711410052
Li        -4.0051045597        2.1271881573       -7.6103145413
Li         9.5948288886       -3.7003082227       -3.7403299958
Li         2.5421756849       -5.6452673637        7.2795745058
Li         1.4113113779        0.0954295318      -10.8151926084
Li        -7.3751301945        2.4511277254        9.8287902844
Li        -1.4091277631        6.0433447353       -0.1471526734
Li        -2.4419851888      -12.2901690711       -3.7407053670
Li        -7.8464685052       -3.7493102614        3.9167547217
Li        -8.2119690009       -4.0051284275       -2.7479830847
Li         2.9183741516        0.7385835102        1.9801637314
Li        -3.9859104880        8.4858686594       -9.1339655726
Li         0.5942584260       -2.8766219424        9.0872007339
Li        -3.0788884386      -10.5266987583       -7.1241171815
Li        -3.6339089926       -7.9802815897        8.2741748937
Li         0.0742445346        3.1927747235        1.6372356037
Li        11.0407459635        4.5828511721       -1.9207214389
Li        12.4439245958       -0.9944029984        1.5657391209
Li        -9.1078251093       -0.2409466557       -2.8316719298
Li        -2.0374285655        5.7278771474      -10.9969677900
Li         7.8060975007        9.1806056324        1.0807222000
Li        -4.1293888505        1.1962200076        8.5174010050
Li        -2.3963788138       -9.0192086291       -2.0448816852
Li         2.0630611912        0.6979054590        9.3062741719
Li         4.7941466459       11.5981397805        0.6925904766
Li         8.9759747028       -4.1486555911        7.7532926469
Li        -3.1233186293        4.4852566405        2.9110787741
Li        -0.0735333500        2.9302189065      -12.7913382316
Li        -3.2335325760       -2.5679615854        8.6010900488
Li        -2.6105736594       -7.3353478620       -9.2323600636
Li         3.1719899280        7.8374944714       -4.5117782418
Li        -0.9153544962      -12.0322164581       -0.2109053476
Li         8.4498746922        2.2285464743        9.7835788195
Li       -10.9861342900       -4.5694027380        1.8937950264
Li       -11.1439827007        6.5867788205        1.9184923556
Li         8.9668541532        5.5399843960        7.8175461904
Li         8.8047825192        2.2297658700        6.0393074389
Li         6.2365379900       -6.8652571808        2.3708830455
Li         4.7386835805      -10.7448119973       -2.8537885373
Li        -4.6930472160        7.4164902159        1.1195012520
Li         7.0495331957       10.7994405068       -2.3335731836
Li         5.8407360356        1.4788947580        3.9953640887
Li         2.4533183478        9.0309651662        2.0174603019
Li         5.2790892275        3.2439491461        0.6860841790
Li        -1.4315383571        2.7580876712       -1.7954148947
Li        -3.6341750503        1.2151938511        4.8523362838
Li         8.6323045463        2.0417912748       -0.5690913856
Li        -0.1120862493       -9.6856846502       -5.0325780548
Li        -5.5412411229        4.9786431483       -9.5061363755
Li       -12.3873319928        1.0042131106       -1.5972565762
Li        -6.1112715538        0.5001100335       -0.7945666140
Li         7.9509784047       -5.3058939585       -0.6880583216
Li         7.6367768066        5.7672395361       -0.6383284289
Li         0.9115446272       -3.2100831500       -8.9803910286
Li         9.9678596069        8.2846260113       -1.9820507878
Li        -0.3449772887        6.4858877479        7.0098608747
Li        -2.1229181522       10.9678154297       -6.8245069682
Li         3.2636845674       11.2877047713       -2.8610593305
Li         4.0414146654       -8.4712210396        9.1076541402
Li         2.9623486688       -8.8841579161        1.9349496117
Li         6.4061830992       -5.7518430312       -4.2096447904
Li         1.8213235806        5.5001202044      -10.6189365865
Li         5.5968778384        4.8218780390        9.5616368748
Li        -6.3420586452        9.0669245924        5.9007817160
Li         1.3831106589      -12.5970530286       -3.2520013378
Li        -4.9847277649       -1.4405407529      -11.4334611072
Li        -6.8648271865        2.4650701885        6.1498388781
Li         0.9719797001       12.0445666300        0.1841306457
Li        11.9403340317        0.8029884810       -1.8366830533
Li        12.6498070560       -2.9843019991       -1.7315068222
Li        -3.6539177140        4.5370530772        6.6499397009
Li         8.2712783760        4.0235072059        2.7166189893
Li         3.7687216546        2.6209717485      -12.3019202525
Li         7.7913454475       -3.3451088532        2.6294072733
Li        -2.0147178094       -0.6870210813       -9.3342114876
Li         7.8959344792        3.7644491413       -3.9403708495
Li        -2.7461532227       -2.5160705019        4.9352932745
Li         1.0483570013       -2.8211042133        5.4178423660
Li         0.8700461636       -6.4886631625      -10.7253581963
Li        -7.6766699080        9.7047744888       -4.2297193792
Li        -4.5378442615       -4.9207224191        2.6137176694
Li        -8.3849401790       -2.2131396353       -9.7857365150
Li         0.6805155249       -8.1309761499        4.9693492241
Li         3.1113010680      -11.0251736357       -6.3355354789
Li         3.0889522063        7.2691579113        5.4046781952
Li         2.5054924825        0.7215634885        5.6343336664
Li        -3.0333095208       -7.2547892843       -5.4305593349
Li         1.3412580388        5.4237005324       -6.8987752120
Li        -8.7330251980       -0.0242036692        3.8339347831
Li        -9.4397890959        8.1726762304       -1.1609459643
Li        -0.9925292858        2.8340936240       -5.4450162637
Li         0.4011330811       -6.4748098596       -7.0362471208
Li        -0.3884624335        3.2160823349        5.2836167810
Li        -2.0948267131       -4.0248067215      -11.1987987929
Li         1.6983009644       10.7044357458       -6.3648403583
Li        -8.4422215826       -3.8350300219        7.6930161150
Li         6.9778944489       -5.8157518394       -7.9920377854
Li         5.9768707839       -4.8652143029        5.6744631726
Li         2.0919377051       -5.7116926676       10.9697777654
Li        -3.2061696217      -11.2767377400        2.8344402582
Li        11.2586026637        4.7831391473        4.7723597691
Li         5.4239184260        6.6022766403        2.4082454407
Li         1.5931602834        0.6673228145       12.9608016265
Li        -1.6390060004      -10.6942241231        6.3401331397
Li         3.1736655273       -1.2122392357       -1.2386654133
Li        -6.0130985609       -8.0514414831       -7.5068366522
Li        -3.6995925389       -2.5965429313       12.2560057419
Li        -2.8645062555       -0.7263729174       -2.0076171697
Li         0.3535373139       -9.7474947331       -8.7285830809
Li       -11.6236988550       -2.7998676570       -1.5061533882
Li        -5.2232495987       -3.2311544256       -0.7116095514
Li        -5.5416667707       -4.8081441660       -9.5868596622
Li        12.1580243982        1.0039750682        4.8563826162
Li         3.2950349754        2.5869729224       -8.6274568237
Li        -0.5785447471       11.5969636683       -3.3505151868
Li        -1.7647841320       -5.4854894793       10.5926436651
Li         1.3817686757       -3.1846252355      -12.6553876200
Li         5.1379424517        5.0458801423       -6.3347875476
Li       -11.8852494750       -0.7915284063        1.8098017501
Li        -5.4525872337      -10.3641793496        5.8401797555
Li         3.0160231401        3.9912764657        3.6930639238
Li         9.6363363244       -7.0017172889       -5.4668441204
Li        -2.4492137758       -0.7087536700       -5.6606431227
Li         0.1211221894        6.4157267286        3.3062758521
Li         8.7842432996        0.0319788083       -3.8573861008
Li        -3.1153147939        1.2240756616        1.2115705048
Li        -0.8888387368       -0.0526414260        7.1469075056
Li         9.4215849173       -1.7321144731       -0.4715938981
Li        -9.3699504035        1.7418953196        0.4390444259
Li         6.1086596903        1.3132695118       -6.3221096632
Li        -5.3673029896       -6.5902936464       -2.4326420060
Li        -0.2971221260        9.7583150597        8.7023547458
Li        -3.6345214498        7.8553772906        8.4031620393
Li         3.1785959101       -4.4717447997       -2.9371383070
Li        -0.8556303139        3.2154781946        8.9517540001
Li         4.1931245679       -1.1865943079       -8.5435585709
Li        -8.3885894713       -7.3976386686       -4.5072886988
Li        10.8324997296       -2.6200946875        4.7034463598
Li        11.0924664366       -4.6279634144        1.3877303023
Li        -5.0808218873       -5.0309092916        6.3164967834
Li        -0.8619698086       -8.6808179331        1.4773935054
Li         4.4676435807       -8.3636155768        5.4075857167
Li         1.4644461174       -6.0307528838        0.1212910838
Li         3.7086850630       -4.5236849909       -6.6776143826
Li        -0.6228838346        8.1429318356       -4.9951898601
Li        -4.1516257429        4.5434702811       10.3696684394
Li        -5.5795473853       -5.0934977016        9.9965299469
Li        -2.9075919202        5.5414022842       -3.5981178167
Li         6.9379725909        7.4631929900       -3.9885301152
Li        -0.0649012530       -6.4029296711       -3.3325601181
Li        10.2270146472        6.2827574752       -5.2818340924
Li         0.6354387019      -11.5845362075        3.3243544192
Li        -2.4867859560        5.6595622173       -7.3060298017
Li        -7.5859451816       -5.7540842090        0.6057020424
Li         5.5139699866        9.9375967706        4.1264593399
Li         6.1671438508       -0.4874523256        0.7690451756
Li        -3.1112430094       -7.8303260098        4.4890493833
Li         2.4993520386       12.3021653097        3.7126307853
Li        11.1657473557        2.5413370789       -5.2198353449
Li        11.1800579654       -6.5560780950       -1.9477053389
Li         7.4707491532        7.5637644060       -7.6745797300
Li        -4.7367363261      -11.5884714011       -0.7215960936
Li       -12.6191793289        2.9986305591        1.7002104630
Li       -11.0365766562        4.6412604231       -1.4159210289
Li        -0.4279762169       -0.0229996753        3.5468080085
Li         2.1812935160      -10.9555287480        6.7987337723
Li       -11.1139791856       -2.5295559955        5.1956349365
Li         6.6292525286        1.3545643709      -10.0374478750
Li        -1.3579464918       -0.0827542046       10.8140761772
Li       -12.0757724776       -0.9939498688       -4.8812358080
Li        -4.3962607656        2.0591177392       -3.8527429054
Li         5.0357233326        1.4521479324       11.4096219988
Li         1.8815232355        0.1256949270      -14.4873312162
Li       -11.1804020537       -4.7560909657       -4.7975923156
Li         2.6670849482        7.3482102566        9.2059405670
Li         6.9227501699       -2.4534742367       -6.1680529194
Li         4.7478412512       -7.4033468506       -1.1452017503
Li        -6.8657020681       -7.4337887210        3.9531036667
Li         4.0629860285       -2.1140137082        7.5832561001
Li        -4.4108069024        8.3765523430       -5.4341559173
Li        -4.6820291728       10.7582463898        2.8276055086
Li         9.3973413283        0.0688812200       -7.6338069966
Li        -7.7351579619        3.3588873667       -2.6538419363
Li        -6.2328226224       10.3105657480       -0.7076535709
Li         5.5977518899       -4.9657807954        9.4797187620
Li        -7.7499265889       -9.1684866609       -1.1088890223
Li         2.9638123068       -5.5286057453        3.5718355658
Li         5.6387666772        5.1100452125      -10.0191517389
Li         6.2892076605      -10.2972091265        0.6808577237
Li         4.2089573114       -4.5321691225      -10.3958880685
Li         3.6251368509       -2.1618854560       11.3102091781
Li         5.5355887256        1.2599066689       -2.5878128824
Li        -1.3235149576        3.1836639398       12.6063538781
Li        -5.7895036277       -1.4673570919       -4.0248729051
Li        -8.7687682081       -2.2220982601       -6.0799743377
Li        12.0128555143       -1.2209371272       -5.1150031276
Li       -10.7754312717        2.6313208302       -4.7302625387
Li         3.6896194931       -1.2026600930       -4.8788344131
Li         0.9441188478        0.0653466321       -7.1671918777
Li         9.3563193555       -6.2070756772        4.4854059494
Li        -2.3293039963       -5.7262796024       -0.3620521365
Li         7.4739193844       -7.6919934638        7.5033692961
Li         2.9340323993      -12.2027198665        0.2582107139
Li        -7.8967899214        5.3248837420        0.6570576593
Li         7.0725105898       -1.3783933281        9.6994881151
Li        -5.9204631005        4.8763655169       -5.7002708412
Li         0.8539147826        5.2960305190       -3.1543056356
Li        -2.2424480465       -2.4435091003        1.2931115816
Li        -9.2998242806        6.2199267862       -4.5117210311
Li        -3.0533909470       11.0394155055        6.3097179001
Li         9.4956902874       -8.1566703334        1.1318018799
Li         5.4665843921        1.4726703033        7.7205111762
Li         9.1693681324        0.2499402170        2.8005174459
Li        -3.1032382069        7.7674899816        4.6158767789
Li         7.7335705080       -9.6908241762        4.2016035277
Li        -7.9684746734        8.7333753266        2.3895543651
Li        -7.3776195048        1.3327210253       -5.9160713525
Li        -1.3746808693        9.3390480117        1.5297914691
Li         0.4444284149       -3.2036728433       -5.3107795278
Li         3.1603362720       -7.7532901931       -4.6417684268
Li        11.7883943074        2.9855954114        8.0968302699
Li       -10.3467694048        0.5788449826       -7.9634715706
Li        -4.6544063316        4.0432645427       -0.5792579132
Li        -5.4574782301       -9.9247271247       -4.1527768806
Li        -6.0547451979       -1.3010446717        6.2948550596
Li        -8.5768973541       -2.0291353968        0.5452403480
Li        -2.9594409881       -3.9780685562       -3.7185184661
Li       -10.5917494689       -6.5404121483       -1.4295171796
Li        10.6470106832        6.5558171046        1.3978736927
Li        -4.4045436593       11.7213438909       -3.7926739213
Li         1.4874886905       -2.7453528030        1.7692584615
Li        -7.0032067895      -10.8118094020        2.3053154441
Li         2.3001466946        2.4580857781       -1.3202683296
Li         3.6915255876        7.9928175254       -8.2990455922
Li        -7.0167803032        1.3899437812       -9.7246614876
Li       -11.9813168842        1.2296813027        5.1000620408
