31

Li         -3.2093717000        3.4027546707        1.1054084347
Li          0.9190097173       -3.4781751538        2.2486166489
Li         -4.5918770394        0.8069736335       -1.2923144551
Li          0.7630014951       -0.8960357538       -4.6600088522
Li         -0.8543423883       -0.9819797590        4.5989282490
Li          2.8060115163       -0.3387373952        3.1638765390
Li         -1.6700538166       -1.3332217352        0.8348644506
Li          0.0032580934       -4.6839168574       -3.8541205110
Li          1.1463126499        2.2438765278        5.4352365905
Li         -2.4347481757        1.1500590911       -4.8883096475
Li         -2.6357971914        2.4474277754        4.8758349662
Li         -1.6616209801       -4.8489974869       -0.3613991634
Li         -2.7156804329        4.1274237693       -2.5953147423
Li         -0.3277618460        1.6201442582        2.1744784843
Li         -1.0807575984        1.1074184612       -1.5703516226
Li          4.0620334388        0.2705516644       -3.0382323850
Li          3.9108148354        3.7876847973       -1.4544952516
Li         -2.5900044458       -2.0837082097       -2.9236008413
Li          0.3296308606        4.3998422218       -0.3607446469
Li         -4.3647234649        0.0396053216        2.5984207293
Li          2.9986818864        3.4789530561        2.3041620567
Li         -0.3864926656        5.0766053176        3.2972768610
Li         -2.9541322943       -3.7514934802        3.1260347233
Li          2.0953300449       -5.5654862527       -0.7250972451
Li          5.5649590569        1.0762610601        0.6675227644
Li          2.1070079057        0.8854885937       -0.1999658113
Li          3.5687226838       -3.4033672966       -3.5202849056
Li          1.0849408096        2.7864740640       -3.8032990338
Li          0.8909025670       -2.1971769416       -1.3562293634
Li          4.1390567011       -2.3837641099        0.1737945728
Li         -4.9123102227       -2.7614838519       -0.0006875928
