323

Li          1.5681419136       12.2834798829       -2.0830597853
Li          0.0810140535        0.3544167729       -0.3804756972
Li          3.3461403320       -8.6136127084       -8.5561502693
Li          2.0611674838       12.3236693191        4.6164659314
Li          2.0895278528        6.0081609575        3.5997217495
Li         -1.2106431664       -0.8302732132      -13.4342940968
Li          6.7280307154       -7.3011970081        7.8622748879
Li         -1.1166180764       -1.3785952761       -9.7673275973
Li         -2.1408242418       -4.2332415740      -11.9184661174
Li          1.3778592282      -10.9593044900        9.7258935604
Li          5.4671869805       -9.1862913466       -5.3190231704
Li          6.6412903784        0.0487137486        2.5905670352
Li          7.9374180451        3.7347537067       -9.0029089754
Li          2.1944190669        5.4925826030        7.2789875883
Li          2.5104724491        3.6882111743       -9.0979763561
Li          1.3113093656        1.4085791436       12.3710508844
Li         11.9958749399        4.4570438265       -0.1829487454
Li         -1.0133112488       -1.8971908602       -6.0973754123
Li          0.6981004998       -6.9372680301       -6.5640072207
Li          9.3507249739        2.2518568904        1.2164259841
Li         -4.3967051093       -1.7415866537       -7.7683657480
Li         -7.7832755761       -1.5708886307       -9.3708788949
Li         -9.4452352195       -6.7664813413       -1.2071820170
Li         -3.1435586341        0.5847169846       -1.9331527330
Li         -0.9020036839       -8.6467329900       -3.4811568531
Li         -3.4101917388      -12.1741471943        4.2657028671
Li          5.2414343056        2.0777604837      -11.2398479016
Li          2.6555993065       -1.1845279989       -2.3464059604
Li         -6.8087587985        8.2661781925        7.5187052079
Li         -7.8602642488        4.7200987973       -8.4334220963
Li         -0.9695634174        3.6223226519       -1.5419258344
Li         -2.4764914675        1.9776158127        1.5029846498
Li         -8.5617022295       -2.6365039249        8.9518301510
Li         11.1603602129        2.7840411883        6.2382121735
Li         -5.9056458568       -6.8699401936        0.2837828129
Li          6.9046778476       -0.5186931525        6.2667570985
Li         -9.7546472408        0.9493555717       -4.9917006875
Li         -8.6444265523       -4.9554514300       -7.7016938559
Li          7.1103907512        5.3338621052        1.7803364016
Li          2.6169476899       -0.6704192220       -5.9990598188
Li         -5.9586600480       -8.7210302837       10.2486985914
Li         -3.3142478966       -2.0382358192        5.4703057706
Li         11.3375662367       -4.6988056926       -4.7723712802
Li          6.7758975202       10.3301462759       -5.8081485686
Li          5.6251373667        5.4067500341        8.9955139582
Li          2.5809553709       -5.0801151160       12.5888684525
Li        -12.4453899674       -1.2681620319       -3.5996039871
Li          8.1885990748        8.2516903310        3.8770813605
Li         -1.2890086245        5.3727331272      -12.4983832554
Li          0.4274196695        9.9107155891       -7.8895338143
Li          3.5165473254       -0.3478371995        4.6949473962
Li         11.3044140994       -3.4336117301        5.2792772499
Li         -5.4247661540        7.2136814056       -4.2754415590
Li         -4.5154592280       -7.5443168498       -3.2236593157
Li         -3.3002106988        1.1348264000       -5.5773982362
Li          4.4121180579        3.0559053149        3.1388892280
Li         -5.6117483742        7.8684230200       -8.0373849496
Li         -4.2428798171       13.5839667169       -4.9844925445
Li         -4.7320977241        8.6651026795       -0.7473651687
Li        -10.4453288347        5.8261106028       -2.7263379725
Li         12.0779029284       -3.2438341324       -1.3003456091
Li         -5.2797836145       -5.1134958196       -6.1380188345
Li         -8.9353621800        8.7025896110        4.2916779604
Li          2.4217820097        4.2406205252      -12.7628171322
Li         -8.5987072145       -6.4905280260        8.6151328713
Li         -0.5786162134       12.5739099445       -5.2840602233
Li        -10.9984636751        4.2883552344       -6.2120552267
Li         -2.4563433141       -1.7763464744        0.9674568959
Li         -9.6196352088       -8.3197892634        5.3789487683
Li          8.2646879044       -8.0980610652        1.5243354734
Li         -5.7285545719       -1.5992827181       -0.5400106228
Li         -5.8345858855       12.0138940301       -1.9022140946
Li         -2.2934883577        8.1583702665      -10.0340019522
Li         -5.6185629183      -10.3717308400       -5.3834657344
Li          6.5455245889       -9.5476176040        4.6600712597
Li          2.2709866155        4.8968751884       10.9038361307
Li        -10.7377604971       -6.0385081691        2.3936151133
Li         -9.1812989007        2.4138744690       -1.5279452737
Li          7.7720439150        6.9077748347       -4.6071381714
Li          2.6088108234        2.5306088890       -1.7969237830
Li          8.9861712679       -6.5257029044        4.9730566922
Li          3.6940983042       -1.5804032789       11.8106045075
Li         -0.2764117689        2.5679324182      -14.8728926882
Li          3.6886383188       11.8232941256        1.1438272129
Li         -1.8011849953       -6.2901815639        1.6539920976
Li        -10.2843812332       -4.3806989942       -4.1965549833
Li          3.6374574871       -0.9958064687        8.2252745820
Li          8.6829345301       -3.0362636347       -2.8009639378
Li          0.1688678506       -6.9215239405        4.8565052940
Li         -2.7790189790       -9.0364984006       -0.3101943009
Li          5.1143254646        5.8983453856      -10.5618885868
Li         -2.9350521094       -8.0692614289       -6.6407977547
Li         -3.4341795435        1.6846646804       -9.2386599126
Li          1.0695783753       -8.9979865260       -0.2132766391
Li         -7.0788287294       -9.7445417805       -1.8490757997
Li          4.5849065553        2.5152103616        6.8469018937
Li         -7.7484649386        5.3107579151        5.3802101719
Li         -2.3790377813        0.2724300947       12.2433816856
Li          3.6756887858        5.4241706950        0.2110769613
Li          7.9839483272        2.4110055628        8.4671771602
Li         -4.4735225992        4.5014609796       -6.8329566839
Li          9.8888635270       -6.4655946420       -1.6427546068
Li         -3.9616270675      -10.9388870925       -8.7610514765
Li          9.7710585852        7.5870232572        0.3815827681
Li         -4.4477501142       -8.6531036550        3.1247467258
Li          6.9759888060       -7.3818586058       -8.3971506103
Li         -9.7533005251        7.3080854891        0.7848018742
Li         -2.3691866766       -9.2437017237        6.3280551763
Li        -13.1161784037        1.1212948720       -6.5294003861
Li         -0.1831189516        2.0176761259      -11.2079216543
Li          8.8344070369        5.7941318756        6.7986081334
Li          0.6284868668       -6.4775171406      -10.3644330846
Li         -4.6087102690        5.0829078449      -10.5379189590
Li          7.1978087308       -4.7546731613        0.3289059684
Li         -8.5102665426        0.0376495483        1.4482750193
Li          1.1747818853        2.6389396935        5.1876703755
Li          7.0280774095       -1.0647289994        9.8704639989
Li        -11.8899450548        4.0684349205        0.4076209921
Li          3.0810499356       -9.2324542469        3.0949140035
Li         -7.7795119644        1.5334929715        4.9394350689
Li        -10.5062558977        3.2205307044        6.8335217188
Li        -11.6240092389       -3.6597199515       -0.6080349260
Li          7.4336647681       -9.4739606197       -1.9660985194
Li         -6.0075960414       -4.8558291487       10.8346500263
Li          7.8819210801       -3.2445995475        3.8233898730
Li         -7.0400941028        5.6040361219       -1.1697521137
Li          4.5732939563      -10.5091293420        7.6764874518
Li          0.1251976918       -5.7332849859       -1.3729059446
Li         -7.6380672166        4.1070579174       -4.6651202128
Li         -3.5349621458        2.2352832834      -12.9050395746
Li          5.4777542316       -3.9272895740        6.5630916233
Li          1.0830111476        3.1815918263        1.5766121954
Li          1.2586376606      -10.3225587618        6.0639411318
Li          6.4915443956        8.7890674283        7.3173399482
Li          0.2131637544      -13.2262341001        4.0437961976
Li         -5.8288832511       -0.4777867065        7.3688076703
Li         -3.7494686322      -11.7233213901       -2.4254611875
Li        -11.0889806276       -2.1935169042        2.9034916118
Li          4.7254906950        8.3167664425        2.2633398480
Li         -3.6096915600        5.3155984915        0.3851806616
Li         -4.2909755917        3.8866615503       -3.1075387546
Li          8.7450171981       -4.0107282033        7.9652588861
Li         -2.6445683920        8.3099690567        2.4754823285
Li          3.8403968367      -10.8197491097       -2.1539256958
Li          4.3028814828       -5.2582134278      -10.2321474009
Li         -6.8689091913       -4.5302190858       -2.6590843357
Li          1.2329757622        1.9952491999        8.7601143365
Li          2.6418578180        8.8768361566       -0.9310273530
Li         -5.0907833738        3.6280114455        3.4266040126
Li         -5.0822886980        2.6299826007       10.7334591128
Li         10.5256550617        5.3542218527       -6.6488143068
Li         -0.6513267137       -5.5543172231       14.6394888730
Li         -1.1931495212        4.8181367170       -8.8340532922
Li          2.0441043348       -6.0254861718        1.9663313330
Li         -1.8474101347      -11.5222585568       -5.6522006183
Li          2.4382074600       -4.3970448906        8.8540911631
Li          7.7786462287        2.9170501267        4.7012776739
Li         12.7304749137        2.0926336407        2.7477540313
Li          1.8231824942      -10.4132083687       -5.4941242900
Li          8.8978118886        9.8791343496       -2.5910781519
Li         -5.3162830369       10.0413601861        4.4638712379
Li         -2.1542847155       13.2509810847       -1.8034972110
Li        -12.5409950540        2.5862234616       -3.0707673672
Li         -0.0439347832       12.8209937093        1.4083492200
Li         -4.7714615215       -3.9461499039        2.4520142241
Li          1.6901467793       -4.0507132639       -4.4455079821
Li         -7.9962398699       -7.4174344552       -4.7943852336
Li          3.9753144923      -12.4674255851        4.4101626906
Li          4.1338547130       11.7339002014        7.7742569873
Li          6.0096441203       -1.3926811198       -0.8523389966
Li         10.5928924428        1.5294820350       -7.2216873645
Li         10.6384812283       -4.9909090595        1.8341077854
Li          2.5573088808       -0.1432582616       -9.6656181730
Li         -2.0358145815       -4.7483437420       -8.2395755163
Li          3.7457895031       -4.4897776186       -1.2151603090
Li          1.0340846518        9.4429650430        2.5263923102
Li          5.2592201579       -2.3019023377       -8.0080936237
Li         10.2871564510       -0.5909007741        7.8261798893
Li          6.3856794047       -6.1541066891       -3.1623439763
Li         -5.8197710309        2.2163144988       -0.0093655662
Li         -6.4213790615        0.7727103279       -3.4584307295
Li         -5.4603897434       -4.6198824046       -9.9305352340
Li         -4.1571399885        6.5584979482        5.5518310459
Li         11.4205658128        2.9979676379       -3.7319428128
Li         -3.2832367039       10.9110945684       -7.5270782394
Li         12.7873017367       -1.7546751168        2.1717069901
Li        -11.1944884526        5.5618472183        3.8806672684
Li         10.3852199418        9.1211294711       -6.0269022176
Li         13.3895318724       -0.2709586751        5.6472654071
Li         -7.5631453425       -2.2606578410        4.4331300514
Li          3.4356409369       -7.1783682361        6.3548642853
Li         -6.5319466724       10.5582676282       -5.4332765359
Li         10.5470920431       -6.0980521646       -8.2156625039
Li          8.7435531205        0.7886571007       -2.2945068256
Li         -3.3604089425       -6.5044966645        8.7913593895
Li          0.1723463999       -0.1746097640        3.1660886447
Li         -8.7866702688        7.4419271210       -5.8406850575
Li        -11.2717793064        1.6936172862        3.3954488849
Li          5.2881810395        1.5232959126       -7.5285832650
Li          7.9082993302        3.1459418186       -5.2255660553
Li          0.3364574647       -2.0887033611       13.6637968228
Li          5.4681383571        5.9156634449        5.2220687341
Li          0.1590013096      -11.9527057483       -2.3648485087
Li         -4.5296126197       -1.2055316398      -11.4840053083
Li          5.7326636462       -4.5543051739       10.3410710228
Li          3.1086221461        8.8640970425        5.6736044864
Li         -0.3058165004       -9.8048884809       -8.7059832834
Li          7.9832619428       -0.1135490536       -9.5624438023
Li          4.1662166735        8.1125371656       -4.3882820704
Li         -3.4666066899       -4.6374742938       -1.1169511338
Li         -1.9116178593       -5.2102315456       -4.5192556536
Li         -6.2700630361        7.0175493313        2.3295753669
Li          3.1056832980       11.4773636911       -5.5557437609
Li         -5.1452520913        3.1575783624        7.1254449991
Li         -9.0739936102       -1.4375677373       -2.0606759672
Li         -8.1975356075        8.9831874084       -2.3339419786
Li          0.2865305301       -7.6171292213        8.5314763474
Li         -6.9991933609      -11.0258407329        4.5577539925
Li          0.5166389582        9.2259744844       -4.1282102930
Li          1.1557960746       -2.8783608091        0.7100517916
Li         -1.7724086405      -12.5683752176        0.7842759644
Li         -3.1424035172       10.2376265369       -3.8293661039
Li         -3.3226801414       -7.1148675213       12.4714227183
Li          7.7820046273        7.5352376099       -8.3155959641
Li          3.2233053257        8.3722854533        9.3885269035
Li         -7.5598091533       -2.0983946958       -5.5834342212
Li         -2.1827250964        7.5666647945       -6.3669271863
Li          4.7487606420       -7.7655315819        0.0023873616
Li          5.2801574702        0.9666373570       -3.7895851447
Li          9.3945198048       -1.5889484195        0.6632026827
Li          1.4318961860        7.1210032374      -10.3931905961
Li        -10.3602482959       -0.6233705412        6.3516960351
Li          9.0487895259       -7.8257483129       -5.1312949822
Li         -7.3986892481       10.3740650730        1.1991227237
Li         -1.5180473456        4.8651187943        3.5614775036
Li          4.1317984512        8.7805592010       -8.1535107471
Li         -1.4791407072        4.3652695558        7.2790308144
Li         -3.1533650488        9.4514401987        7.6528658359
Li        -11.9267887861        0.1900682695       -0.0881553395
Li         -0.7868023191       -4.2710358270        7.2442602980
Li          5.2539611582       -2.7892793468       -4.2904245198
Li          5.5303632962       -6.2553106057        3.5000776376
Li         10.0124073648       -0.1078455037        4.1145567305
Li         -8.2143349174       -3.8106654929        0.9261471286
Li        -10.0756031825       -4.4767352455        5.8445044425
Li         -6.3266713341       -7.9680064708       -8.2769329198
Li         -1.3102244998      -12.6047788540        7.5029580870
Li         -4.9538922132      -11.4931445257        7.7626083346
Li          0.3940102260       -8.2487802739       12.2065692824
Li         -5.0892472213       -0.1272288730        2.9422699840
Li          0.5020872645       10.6163703246        7.7441531608
Li         -7.7607966390        4.9152878907        9.1122912565
Li          0.0226450605        6.5386654298        0.4713957618
Li         -1.6366641026       11.2492462784        4.5772370806
Li          0.0009367634        0.9283264028       -3.9612673444
Li          5.1705131484        5.3232902274       -6.8909247580
Li          5.9679238158        2.3935969917       -0.2973278181
Li         -3.7592016987       11.7149242217        1.3457595143
Li          5.1738476478        4.7055388330       -3.1933054761
Li          5.7538877864       11.1970697285        4.3533198478
Li          6.2840938155        7.6605221002       -1.1761536338
Li          5.2095119200       -1.7791362814      -11.6889269173
Li         -0.9042459792       -2.3947328592       -2.4367476126
Li         -0.4479228268        7.2595592489        9.4282849517
Li         -5.4260721407      -11.4536913171        1.0446386110
Li         -0.8306487642       -3.5568314402        3.5712545632
Li         -5.8962991416       -1.0064635379       11.1697563838
Li         -5.9852645188       -4.3041767425        7.0262030138
Li         -0.0904903276        1.4696907135       -7.5619911181
Li          2.4701855546        0.4031930028      -13.3329711247
Li         -8.3764580485        1.2128050437        9.1853446571
Li         -2.4730150462        0.8684166504        8.6607124303
Li          4.3178066371       -5.7220961392       -6.4298418162
Li          5.7736716761      -11.0759241579        1.2169986219
Li         -0.5259477755        7.7443784052        5.6492118933
Li          1.6348438890       -3.5817314795       -8.1981785132
Li         -5.9822106664       -8.1134728617        6.5799286706
Li          4.4906306525       -3.0499200736        2.2596003399
Li         -0.7497756687       -9.7813061390        2.8612264343
Li          1.5141045748        6.5251880011       -6.6887145620
Li         12.1722285874        0.6189006399       -0.7776278374
Li         -6.6373827550        1.3275919540       -7.1603325970
Li         -9.9974455453        1.5079442238       -8.7085110109
Li         -6.7838016792        1.8798633189      -10.8342742328
Li          0.1929972233       -0.9080765031        6.5960486285
Li         -3.0622860977       -7.6164328934      -10.3649528560
Li         -8.4310978662       -9.0447371779        1.7387718381
Li         -4.1181685893        6.1031993557        9.3295834816
Li         -2.0488213063        6.9090783148       -2.6786123595
Li          2.7787401740       -7.4735873073       -3.3465830284
Li         -3.3084404406       -3.2833388742       13.0085491622
Li          2.5726983451        3.1196832078       -5.4383281663
Li          3.6417325316       -7.7997104889       10.1470334816
Li          5.2669656262       11.1550182406       -2.3466408253
Li         -3.3542241974       -5.8466757042        5.1075633147
Li          0.2766460746       -1.4554620518       10.1133956253
Li         -0.7068866241       -4.8769763184       10.9599233408
Li         -2.3154869089       -9.9425164266       10.0734418448
Li         -8.5119112801        3.8740633804        1.9392285050
Li         -7.2584692055       -6.0780064068        3.8317154056
Li         11.4614254997       -0.8573466261       -4.2874296996
Li         -1.4068606554        3.7759699497       10.9353831173
Li        -10.4135902152        6.9910542587        7.3434937698
Li         10.5245750825        5.2085270945        3.3350396395
Li         -1.0851870564        4.2356550589       -5.1776643088
Li        -10.9203446550       -1.9219269008       -7.1218448680
Li          4.6726440231        1.9211940970       10.5021525119
Li          7.9492191650       -0.6484143328       -5.7758820394
Li         10.6088641269       -2.3037512294       -7.7518095347
Li          3.3276738740        0.2068437122        1.0893750240
Li          7.8905162726       -4.4339475402       -6.2491082029
Li          2.1240079422      -12.2649574986        0.9866074936
Li         -4.2156735059       -2.2489268251       -4.0246547933
Li         11.2200244193        6.8107611250       -3.1175387594
Li          8.6037981652        4.5964998776       -1.6976915079
Li          7.9179046417       -3.9577894345       -9.9851722642
Li         -1.0569127739        9.9001649686       -0.6530277831
Li         -3.2963818100       -2.6474992229        9.2627398120
Li          2.2992164692       -3.7508276030        5.0702883172
Li         -2.4718606267        1.4791450861        5.1216867388
Li          7.3426444420       10.5674471753        0.8819758903
Li          1.5596176266       -3.0632743864      -11.9179285374
Li          1.5806833939        5.8739560598       -2.9663119305
