335

Li         -1.4992377358        0.2275925944        9.9565308299
Li        -2.5951583358       -1.6918329549       -9.8283082791
Li       -12.9893620081        5.6494157222        3.9587360934
Li        -1.0181673483      -10.8665614731       -8.6880772031
Li        -4.2853306017       11.2104432890       -5.3076581824
Li         9.9908255151        4.4205086458       -5.7086561851
Li         9.2392546494        8.5168688941        6.7167003910
Li         7.1380889235       10.5803620126       -3.8662590546
Li         2.4072604351        1.5866432961       -5.3677283521
Li         3.1699438380       -8.9996764629        5.3039265246
Li        11.9340242597       -4.9950104728       -1.9709533470
Li        -0.7295431752        6.6454766648        6.1977350866
Li        -4.0608808028       -1.9115701738       11.6964619598
Li         6.3155765616      -10.7606103278        4.2436669639
Li        -6.3114696603        6.6074575837       -3.5322548869
Li        -3.7496925569       -2.2141089086        8.0564732445
Li        -0.2261942956       -2.6008639423       12.1782115792
Li         2.8373302686        3.5305315354        1.6608558219
Li        -1.7410646909        2.2608698843       -2.5463060291
Li       -12.1146297354       -4.7707746590       -5.1102503250
Li         1.7054536875        4.0709634227      -11.3924444902
Li        -3.7560182451       -8.2521526149       -9.3276046991
Li        -1.3279329919        2.0282156354       -6.1662012711
Li        -3.8499340345       -4.5195187349       -4.0556206063
Li        -0.5024260705        2.7957499249        1.0668128822
Li        -0.1224744563        6.0797252759        2.4415475281
Li         1.4811681163        1.9172803407        7.7085137004
Li        -1.3738368897        8.9395432388        0.2574357889
Li        -9.4950646100        8.1912740416       -2.4172789975
Li         0.6768556199      -11.3096680996        6.8948363165
Li        -4.7921428843        1.6058503508       -4.5757466476
Li        -0.8695922588        1.7864532212       -9.8187908739
Li        -6.1543241199        4.3575469608       -6.6578838929
Li       -12.4248156659        1.9059502551        4.3608178465
Li       -10.3608424262        4.4030798257        6.4589468447
Li        -5.8731461340       -8.3554878879        0.8960106979
Li        -1.1798159929       -0.0695386230        6.4224205323
Li       -11.0994916161       -7.8680844453        1.9063164714
Li         1.9553285894        1.2005588224        4.1777681718
Li        -3.0217649800       -1.4207683668       -6.1718737021
Li        11.4895843759        4.7889193079        0.6741612427
Li        -7.5938139375        3.1009313286        8.8842951967
Li        -8.1260313674        5.4090718324       -0.3744994878
Li        -0.9123552322      -11.9775914691        3.4575094449
Li         1.4098149715       -1.4696975773      -14.9484996603
Li        -1.9800760710       10.0809256275       -8.3463742303
Li        10.0390880010       -8.3284012046       -2.0474806281
Li        -7.2220859065        6.4852551424        6.8983280570
Li         2.3419397716        4.6717278875        5.2841342379
Li         2.4715330806       -9.2403389267       -8.4794380791
Li        -5.9223353043       -4.6919936288        5.9961832388
Li         8.4611598290       -8.8077430190       -5.5695481686
Li        -6.8278502513      -10.2797855674       -4.1086784237
Li         8.1441113122        7.9496961012       -1.5477045511
Li        -0.6633055751        7.3849533095       -6.1536061527
Li         5.9133260225       -7.4913675730       -8.1493398445
Li       -11.6361446569       -6.3336663261       -1.6047232641
Li        -4.8358589026        7.3156489306       -0.0338835228
Li        -1.7800581252       -5.5591681499        2.8237192605
Li         3.7098001903       10.6690613650        3.9278627065
Li         1.9167396613        2.0574520937       -1.7159359855
Li       -12.8971303820        1.2481156221       -2.3206107346
Li         2.2168118641        9.6605135967        0.4794430266
Li         1.8453629554        5.4108756996        8.9137584928
Li        11.1829465870        8.5799894589        0.4413365379
Li         1.9323329640       -8.9195369575       -4.7251607137
Li       -10.8719854712        0.2515283694       -8.6548456631
Li         6.7564976729       11.4671945094        5.9103278458
Li        -4.7208921672        1.8435564945       11.2279708237
Li        -2.7002747242       11.7927019355       -1.8446395631
Li        -1.1764925454       -7.1423431762       -3.5024480398
Li        -0.9183017452       -0.3231436253        2.9025887449
Li        -7.1856922537        2.8686861846        5.2533588561
Li        -4.4152715573        7.7322816632       -6.6601775330
Li         0.4061410525       -0.9833549041       -7.6498948399
Li         2.7425052007        8.1443519477        6.4454946357
Li        -2.1779456601       -5.3748807325        6.5535850290
Li        -6.1216137871       -1.1826631965        1.9898541898
Li        -3.0625736427      -10.6717548094        6.4300594036
Li         5.4627678843        5.7417417507        0.0714219974
Li         6.2255244731        7.9156290766        4.7687841844
Li        -0.1147707618        7.1060943102       -9.9195314331
Li         8.5731250731        2.7195429480        1.9409046163
Li         6.6703387684       -4.2398985533      -10.1732316575
Li         0.6073540366       -4.6231266654      -12.9490933187
Li         5.4733883489        3.4387173530      -10.5412080037
Li        -6.9923621477       -0.6705388954        9.3955038492
Li         2.9256402149        1.2510445883       -9.0758730483
Li         3.7383331973        6.5572845339       -9.1937463205
Li         8.6016225846       11.4297176571       -0.3552670210
Li        -6.6594012554        0.3583320595       -1.4837180236
Li        -4.0905273874        4.8797898152        5.8129981849
Li        -0.3694567605       -4.0895479267       -5.6424000577
Li         9.9088248090       -4.0155099482        4.4903691013
Li         8.6619153243       -5.4113844218       -3.9828332743
Li        10.8711345080       10.1664718209       -3.0202641220
Li        -6.4336187663       -1.8224012517       -4.5353788868
Li        -0.6867188847       -7.4816570068       -7.1768183275
Li        -4.6492164942        5.3616078497        9.5194555560
Li        -2.1161446843        4.3440564353       12.2249688368
Li         4.9191898353        2.0672341648        6.3037463014
Li         0.8871684336       -1.2512069406      -11.2845128902
Li         5.8139759161        8.9862730990        8.5780958060
Li         9.2509775761       -5.6293633778       -7.6887744667
Li         6.1581886285       -0.3810448741      -10.4622060290
Li         7.4039061888        2.2494894251       -4.4007973161
Li       -11.8050934317       -1.8604642421        4.7435310179
Li         8.1548264002        2.0773316366       -8.1655723943
Li         5.5743215644        0.0619458389       12.2963447838
Li        -4.0471789987      -12.8746657405       -3.5464998228
Li        -0.3527233115       10.1387507431        7.4838709442
Li        -4.0310645485        1.2692223893        4.0432799366
Li         5.6910369965        4.2707205189        3.5484464174
Li        -8.4080942352      -10.5849389882        2.4268843276
Li        -3.6149080169        1.0148340944        0.4474972003
Li        11.2361558910        6.4294985876       -2.8148358392
Li         9.0868018329        0.2712249737       10.7622945048
Li        -1.8165622144        0.6573766218       13.5171370263
Li         6.3812769864       12.7854418903        2.3236648835
Li        11.4173146848        6.9963920064        3.9623315004
Li        11.3268403888        1.5640610374        7.6607631299
Li        -3.4101954398       -4.8463564762       -7.7738498204
Li       -12.3902689561       -2.5644714877       -1.9481769605
Li       -12.7455955193       -0.9780491837       -5.4663001606
Li         7.7826115353       -5.1288914654        7.6255846619
Li        -2.8756511509       11.2591522480        4.8043536857
Li        -4.5622356681       10.7568689686        1.3749116652
Li         5.6918691356        8.9535205415       -6.9101149578
Li         5.5350199291       -3.8170803817       -2.8759931883
Li        -0.2038074491       -7.7612951996      -10.8431883701
Li       -11.3023610258        4.7720576153       -2.4049475412
Li         5.5591599795       -0.1421038078       -6.7612902762
Li         3.3024047303        7.0986444656        2.7623953841
Li        -4.3985660665        1.5506464449        7.6327068928
Li        11.8590774138       -2.8512330913        1.2855424409
Li         8.1945039478       -9.5696715554        1.1087646043
Li         4.1545552404       -3.8149888529        8.5083789731
Li         0.6693567136       12.8610164736        4.9670980667
Li        -3.5444251001        4.4441558595        2.0623470445
Li         1.0308803483       12.2523159025       -1.7434480320
Li        -6.6296598872        6.0594947963        3.1461198291
Li        -9.4664534329       -2.5060819186       -6.5381297789
Li         5.2936409085       -6.4774145658       10.5283506202
Li        -3.9736310253        7.5457644906      -10.3929426786
Li        -9.1900562016        3.6958487547       -8.7105754659
Li         1.8995180757        5.9622518208       -0.7430219711
Li       -12.5018207326       -3.1836099274       -8.5657502089
Li         4.4976381702        8.3012301503       -2.3138644800
Li         8.3910582317        4.2857252975       -1.5371437310
Li         8.4658226420        1.0894045164        5.3238515840
Li         7.9300834178        2.8816768771        8.4583963112
Li         1.5808981955       -6.0060084344        6.9767905796
Li         2.5183476379       -0.6482002557       10.0817638973
Li        -6.1760295807       10.1438933505       -2.1131361873
Li        -9.2836783676       -1.8770281390        0.0437037581
Li        -2.4925932707      -12.5038423031       -0.0369453843
Li         1.6124423248      -12.2805386889       -6.2294843258
Li        -6.4509277251       -6.8560218510       -2.6067657019
Li        -9.4599682937        5.9923684159       -5.6107011654
Li        11.4700916903        2.6191776756       -2.5377508363
Li        -9.2740026674        0.3603210300        3.1746727134
Li         5.0761987354       -7.8836041298        2.2228267940
Li         3.0056494218       -2.3932523086       -5.3649654796
Li        -7.4833683128        7.1251962233       -8.7456331259
Li        11.7853774022       -6.9905779917       -5.1892562251
Li         1.3652949820       -5.7627305704       10.6454091767
Li         8.8600383163       -3.3384537804       -0.8931936777
Li        -1.6709018477        5.5956213690       -1.0832232144
Li        10.1056424460       -6.2426498640        1.2316697290
Li        -5.7489464358       10.5015562665       -8.7396112683
Li         0.6372082332        4.6652425833       -3.9805452133
Li         5.7902059927       -1.7021074400        0.0829844127
Li        -9.0291841290       -9.1370701914       -1.1083388849
Li       -11.1634204415        2.5269905911       -5.5635741628
Li       -12.4944215624       -0.3268256060        1.2220711422
Li         0.1073490988       -4.3872256752       -9.2880326876
Li        -6.0140294082       -3.3915894912       -1.1298070424
Li        -2.0996504918       -1.9292286005      -13.4920279466
Li        -6.0530138696       -2.1110324444       -8.2318139133
Li        -9.8329739078        4.1234227154        2.7724795741
Li        -4.3923549299        1.3623489109       -8.3164407229
Li         4.4238549273        2.7256894954        9.9114501790
Li         0.0781998368      -10.1136202675       -1.5540774913
Li        -4.2007804064       -7.9020601193       -5.5545206152
Li         3.8058854855       -5.0079944421        0.2197128003
Li         3.2882665512       -6.0832585070      -10.6185239158
Li         0.3411880930       -3.1439878165        4.9047522145
Li        -3.7080132627       -9.4919264371       -2.0538523414
Li        -9.1577657529       -3.1610367126        7.3205964988
Li        -1.0150839574        3.2044681859        4.7522281202
Li         3.2217635448       11.6312091249        7.5719896599
Li         0.2336964889        9.4372599978        3.7501686378
Li        -3.9289098712        1.1201778878      -12.0340726816
Li        -7.8359499097        0.9388099841       -6.6201076660
Li         2.6162346302       13.2928373822        1.6198639767
Li        -8.0808676849        3.1938882652       -3.5254340705
Li        -7.6511267587        9.3787172714       -5.6047876968
Li         0.1156923055       -2.9228026585        8.5257330238
Li         6.6507242319       -2.2648094041        5.4194787257
Li        -9.7647752823        7.6215301844        4.2708827494
Li         8.6251597035        0.4950184014       -1.2341539499
Li         5.3302170316       -7.2049903287       -4.3947065288
Li        -6.6145414105       -0.9217676775        5.7033937910
Li         2.7736815514       -8.8974015168        9.0496803280
Li        11.4716394059        5.3911996540        7.4712275056
Li         2.2046739405       -5.5651409247       -3.2413690824
Li        -2.1544865376        4.5509521945      -11.9548635296
Li        -4.6833124519      -11.3398252381        2.9677061304
Li         5.5689226768        2.1111165912       -0.1768827907
Li         6.1132150214       -4.0373192513       -6.5189915674
Li        -3.3509690001       -6.0920021814       -0.5967112866
Li        -9.8279499567        1.9161674798       -0.3406300761
Li        -9.8012469625        0.6202785119        6.9376404467
Li        -3.8568467098        8.4043986275        7.2357190498
Li        -5.7334502052        4.1463915431      -10.4481319257
Li         3.3114816657       10.9154456050       -4.5487792487
Li         1.6347069616       -9.6092167595        1.8862559668
Li        -6.3720787842        9.4940338604        4.5521441766
Li        -6.8665707277       -5.2274731316       -6.0743229444
Li        -6.7056680918        2.5594914002        1.5989425091
Li        -7.2245325565       -8.6067180975       -7.5904976526
Li        11.6603235130       -0.6394873128        4.5069996024
Li         9.5693723084       -1.7880019011        7.6462405446
Li        -5.6110284816       -2.3679483477      -11.9107888845
Li        -7.9573576526       -7.1173074022        3.8338888983
Li         1.8543366971        9.5616819173       -7.7319871230
Li        -3.0827975875        4.9739523239       -4.5769385463
Li        -3.4293290091       -1.1437839673       -2.5581246209
Li         1.3087867833      -13.0139546512        0.4346492464
Li         9.4396195730        8.2305555321       -5.8717707625
Li         2.0282573390       -0.0141018288       13.7481621093
Li        -9.7092810461       -0.3009767239       -3.4565910643
Li         5.9364713046        9.2734374930        1.1911782835
Li        -1.5581939851        3.7114023941        8.5114891769
Li         8.0564646662       -1.5788142388       -4.2254450732
Li         3.1085295633        6.8784133662       -5.4245310730
Li        -6.2729964170       -4.4292592715        9.6645307582
Li        -6.7961345056      -10.0215953889        5.9285331633
Li        -0.3542642209        1.5415690090      -13.4773522656
Li        -6.2471059111      -11.7591355819       -0.5622714291
Li        -3.4193179511       -2.4819856128        4.4293027518
Li         4.9512645236       -5.6245924874        5.3505266695
Li        11.6920531586       -1.1980012380       -2.2636090894
Li         7.2166929455       -3.1198572105       10.7481527564
Li         8.3701038501        6.3139341851        9.6192466546
Li         3.4456060428        0.9779813326      -12.7845057690
Li         3.5287758046       -2.6353096867       -8.9731134269
Li        -2.9617344745       -2.6704787335        0.8060805779
Li         8.4155249694        6.4727485585        1.9920067986
Li         7.3580643792        3.4853328001       12.0997921486
Li        -8.4434829908       -6.9179806320        7.5582992142
Li         8.1711791595       -7.4057668195        4.3773137138
Li        -6.4585985474       -5.5507694328       -9.8563721860
Li         3.0300697973       -1.2520698957        6.4100372247
Li         1.9266192764       -6.1350460923        3.2717322553
Li         2.7218533493       -0.1177979369        1.0232532017
Li        -9.0722223285       -4.0907119908       -3.0996217248
Li         3.7524531856       -2.7959594591        3.2375774136
Li        -4.5293749948      -11.2804163529       -7.0559787296
Li       -11.1627143235       -5.6190179943        5.0913262628
Li        -4.7109451162       -7.6163881174        8.1650209465
Li        -8.5663597698       -5.6347765558        0.3690898424
Li         0.6909853144       -3.3065530871        1.2947947154
Li         6.9475714657       -4.5167667291        2.2810521835
Li        10.6164306155        0.6096214627       -5.5937470049
Li       -12.9843993025        3.4704181141        0.8304150384
Li        -4.9593142461        3.8209875165       -1.4944719936
Li         4.0556508757       -2.8522926821      -12.6129247014
Li        -0.5222262553       11.1724192830       -5.0608218950
Li         5.3573201948        5.5163900566        7.4433818040
Li       -11.2953016138        6.9561491929        0.7784708173
Li        -8.0136726101        8.9589307753        1.0879543987
Li         3.8738328893        3.3676798628       13.5264726431
Li        -1.0152287585       12.3079567056        1.5760709578
Li         3.6936639351       -3.2994210342       12.2591125843
Li        -0.4368915330       -0.4239797980       -0.5815166908
Li         5.0523044710      -10.5717347838       -5.9187312612
Li        -2.4833148382       -5.1075294864       10.2535588160
Li         4.4094355811      -11.8783159640        7.3422039989
Li         4.8127682842      -11.4056398396        0.7503999632
Li        -7.4473841562        0.6893568507      -10.4130149041
Li         0.7534626708        8.5844982321       -2.8849377790
Li       -11.8590886672       -4.1195725504        1.5873856442
Li        -2.1355576281       -9.0601305760        1.4225237123
Li        -8.6445075513       -3.3913440672        3.5411106339
Li        11.5402115169        3.1798291969        4.1897436724
Li         3.5473724174       -8.4840738926       -1.2480915782
Li        -3.2302378113        7.8368699587        3.4746534427
Li        -0.0116867320       -0.7084031715       -4.0750400830
Li         4.3811518760        4.1495057490       -3.0755655578
Li         6.6871502202      -10.1784659316       -2.4199338224
Li        -1.4913757025      -10.5160509358       -4.9858909482
Li         4.8510322368        6.2658835324       11.1412799545
Li        -1.2870257192        7.2733504718        9.8908252270
Li         6.1903745317       -8.5254049051        7.4328526874
Li        -2.6409325523        4.7895976612       -8.2789784401
Li         1.1689956213        4.3487176146       -7.6825794548
Li         8.7425034330       -1.1256185576        2.2570818142
Li         8.5417769492        4.9602606765        5.4979364686
Li        -0.8610394910       -3.7934243731       -2.0426399588
Li        -2.9358901696        8.4194080202       -3.2197195992
Li         2.4678632961       -2.2380272304       -1.8032041347
Li         0.9380808106        2.5627016964       11.3237619291
Li        -9.8948972007       -5.9043676848       -8.0990032612
Li         2.2363952080        8.9087063281       10.0748927688
Li         0.3944525369        3.3060275433       14.9409668931
Li         4.8465919977        0.0971388812       -3.0672444549
Li         6.0751771963       -0.4765586913        8.5688587292
Li        -1.8279493001      -13.8914957303       -6.4910909919
Li         0.3957370411       -6.7134440975       -0.1118418875
Li        -0.9563749273       -8.2668388969        8.6561421599
Li         3.2399530903      -11.9127508005       -2.7524928080
Li        10.8527947022        3.6531598996       10.7515049020
Li         2.7625630480       -5.8344844467       -6.9268955767
Li        11.2382281845       -3.2042100761       -5.4257898292
Li         1.2943051656        6.1100326283       12.5310978947
Li       -10.4874068944       -9.3395951795        5.3823967265
Li        -0.5538357384       -8.4344744446        4.8651506868
Li        -9.0937885129       -2.7874118411      -10.2663573848
Li         8.7471019340       -1.7816002085       -7.9878903860
Li         6.9282495872       -6.6834923214       -0.8778049134
Li         2.8708977529      -12.4797294729        3.9088531466
Li         9.0255995605       10.0278855237        3.2062761667
Li         6.8487838769        6.2106281204       -4.5128594433
Li         5.5599534661        0.5205097579        3.1442831806
Li        -9.5269922351       -7.5685839261       -4.6317182322
Li        -2.9435960657       -5.1229805792      -11.4835938210
Li        11.7088011089        0.9578480135        0.9672029771
Li        -4.2718710838       -7.8028010377        4.3790576658
Li         4.9135681963        3.7577632603       -6.8190593849
Li         4.8402082831       11.9450923493       -1.1574042625
Li        -0.2605563371      -13.4937765795       -3.0430987142
Li         7.4965666899        5.8842079222       -8.2609235993
Li        -5.4463355585       -4.8921646013        2.2987159655
Li         4.1991276765       14.2196332053        5.0086271701
