343

Li          2.2918492034       -8.2361268312        5.7835707678
Li         -3.9369344567       -2.3623750840        9.9323436681
Li         -6.2837114559        0.0046516727        8.2162050502
Li         -0.4478671107       -4.2003790522       -9.2620077008
Li        -10.0186294497        0.9497027870        3.2386490946
Li         -6.5566339214       -9.3147773239       -6.2411812783
Li          0.5318601926       -9.4758052898       -8.2047995281
Li        -11.0718337240        7.1416685574        4.7379728991
Li         -3.2168407896       -7.8543501021        1.8308704039
Li         -5.5811188951        3.4775793426        4.4224966680
Li        -11.1283212077       -5.2735918040        5.8146708832
Li         -6.8867234938        2.0493829215        1.3773191895
Li         -6.8717030672       -3.6441502255       11.6474986942
Li         -3.8140564829        6.3659778238        5.7271191444
Li        -11.9553973350        0.7908589933       -6.9971218972
Li          4.3209908340       -8.7913229425       -8.1555949729
Li         -4.8036847444       -0.4460925646       -0.3533191002
Li          2.3802614793        4.9606352887       11.3739453579
Li        -11.2589743744       -0.8600368988        0.0429109784
Li        -12.1097005411        3.4890589369        4.9158892126
Li         -7.6651004582        6.1466664573        6.0801173106
Li         -5.2486250115        3.9749437045       11.7621395492
Li          4.0270192520        0.6857599251        4.5567386444
Li         -9.8484574695       -2.6504067685       -3.0536339771
Li          2.3070376531        4.0366692470        4.0718643137
Li        -12.3189215122        5.3896823211        1.5406439757
Li         -6.4884140687       -0.2466481973        4.5737555164
Li         -9.4410033656       -1.3792350039        6.3014303804
Li          7.4003134601        0.3959761837        6.2977912393
Li         -4.7766001500       -6.0078524327        4.8000232414
Li         -3.1117467718        1.4374462974       10.0028213362
Li          2.1874350688       -1.6551612880        9.5705523697
Li         -6.4771373277       -6.9879906688        9.8967088741
Li         -0.7175848174        8.3751802346      -10.7770073992
Li         -0.1652654781        5.4245943808       -8.6081924909
Li        -11.3630782524        0.8657657548       -3.2344369915
Li        -11.3952535702       -7.3406300293       -0.9636995856
Li          9.4840397916       -8.1149603744        0.7665023275
Li         12.1775604179       -5.3120289345        0.2542475304
Li         -8.4338310755        2.5909829220       10.0426621671
Li        -12.9649705943       -5.5502977601        2.0988643340
Li          1.4706590719       -2.5283926530        1.8456297264
Li         13.8958139399       -0.6000318461        6.0358867104
Li          5.5861158454        3.1366781534        2.1427545280
Li          0.6781132188        1.0450480930        2.8428735320
Li          3.3288391469        3.8019825988       -8.4201865780
Li         -9.3061855466        3.5492485707       -7.8238404550
Li        -14.5103758857       -0.1759471992       -1.5615138236
Li         -9.6964258131       -7.1951796363        2.8642803958
Li          8.0643003590       -7.9886011668       -8.0422739079
Li         -8.1641602954       -9.0366223334       -0.1135427990
Li         -8.8579643223        0.0437007644       -9.3114437012
Li         -1.8317655273       -6.1307004173       -3.2854452093
Li         -0.4291487586       -4.7697600923      -12.8979947147
Li          2.7907099769        6.7800078155      -10.6317138951
Li         -2.9325708315       11.4023765309        0.8541691549
Li         -7.9287842854       -1.5405492689        1.5076984923
Li          2.3668295873      -11.0234380711        7.9543659109
Li          1.9694466618       -2.0395591140        5.7112870840
Li         -3.7603065795       -3.4940131153       -7.3641442962
Li          3.3671820020        3.2551016043      -12.1343973789
Li          6.8352797368        1.5185406265      -11.7376371079
Li         -6.9506754830       -2.8431987716       -5.2828702478
Li         -2.2807620878       -1.3903601275      -13.3630678931
Li          3.3924290809       -4.0886630150      -12.8748316686
Li          3.9116429977        0.2685394604       -9.8269912761
Li        -11.4955339696       -5.5998841984       -4.3676033686
Li         -0.4277206483       -3.5851131840       -5.6584848698
Li         11.9596335927       -3.8777074234       -3.3409714939
Li         12.0356371759        1.3751244777       -7.5169638484
Li          1.9594565702       -6.8252563515      -10.6047406800
Li          0.4178824850        1.3759757055      -13.7630097426
Li         -3.2818533866       -9.3475385759       -4.4719646485
Li          3.9351807592       -0.3034492795      -13.4907824670
Li          9.7052116710        3.3352887449       -9.9339312753
Li          3.8706662490        0.8358039998       -6.1564299559
Li          1.0007612855       -1.5509980058      -11.5014362178
Li         -3.7954200332       -4.0813925179      -11.0706469735
Li         -8.1172385429       -6.1210962649       -2.6787463696
Li          5.6658185236       -5.4493960011       -6.8003231944
Li          9.1201710743        6.8601398235       -8.4333067929
Li         -7.2835700847        5.4945238831       -0.2105777032
Li        -10.1966041866        2.8036639667       -0.0964178594
Li          0.9881792832      -11.7744538717       -2.2653426473
Li          5.7425256490       -6.0526912100      -10.4812468633
Li         -2.8981129107        2.7125466631       -8.2846590744
Li        -10.6274219645        6.1151731019       -1.8772115279
Li        -10.2668093524       -2.7004120836       -6.9216083650
Li         10.9437404160       -6.1553403179       -6.2565371498
Li         -1.5236170410       -7.8875214411        5.2353029539
Li         -6.6624003489        6.3829705382       -8.4354633035
Li         -8.4712428082       -6.0770009754       -6.5402099523
Li          1.9240284322       -6.2096189318       -6.9104659432
Li          8.4759682216      -10.2977100238       -2.2003215754
Li         -1.2558317668       11.8164928178       -9.2114141561
Li         -6.7007330141       10.5791111373        1.0244476542
Li         -4.6390955824      -12.6004145201       -5.7072596395
Li          0.1417612116       -5.6981161945        0.1471219518
Li          9.5548027078        3.8621384819       -6.2001797399
Li          2.9218587329       12.1558848155        3.9957788938
Li         -5.5212558675       -0.1141640827       -7.7463553514
Li         -0.1420787678        5.9243197875       -4.8878743890
Li         -1.6168927499        3.6341210838        4.1648021025
Li          6.2805305426        5.0916298825      -10.3506459357
Li         -9.5877098270       -9.0483511895       -3.9562960042
Li          4.0347920921       -0.0355569877        1.0182664935
Li         12.1913537360        2.7858948481        5.5395279292
Li          6.2727214327       10.8536377126       -2.4530615150
Li          9.2570261186       -0.4671120351       -9.4247157124
Li          7.1041885140        6.3070737044        3.3136704187
Li        -11.4967848290        1.2693010281        8.1141182506
Li         -6.1708021612        7.3820813276        2.9591085358
Li          2.3981055854       -8.4816680436       -1.0196806953
Li          9.7678556465       -2.7624192745        1.4889975561
Li          7.2308618625        6.9901573531        7.0822426144
Li         -4.8945456458       11.1439489215       -2.4472586796
Li          0.4044707263        2.4979979145       -6.4177428579
Li         -3.5203960726       -5.5553041766       12.0464178144
Li         -2.9354287401        2.1470240655      -11.9896469008
Li         -9.7206546833       -4.4228859370        0.3155787001
Li          3.7171484764       -5.1158366935        0.3981674172
Li          8.8898443508        2.9725667784        3.8454146498
Li         10.4083967150        6.1599504017        5.0188378295
Li          8.1879651350        5.8405154235       -3.2548922390
Li          9.6897995848        9.0514404416       -2.1295703134
Li         -8.7081479564        6.4872312856       -5.2667053839
Li        -13.1696719413       -2.0521852184       -4.6404487124
Li          1.0026401895       -0.3903220052       -4.2431706262
Li         -5.3899482632        0.4183553278       -4.1005618987
Li         -7.9809978676       -7.1481864932        6.4458350465
Li         -3.5149654788       -5.7359151360        8.2420406116
Li         13.3082932172        2.2763492592       -1.0195197332
Li          6.2807481118       -1.7127105153       -7.5001346985
Li          5.3664447644       10.2967965172        6.4456669302
Li          2.7388235631       12.4356424660       -2.6854175801
Li         -0.5658108889        8.8456167888       -0.4540544574
Li         -5.3910182550        6.0351785788       -3.4991290431
Li         -3.4099234633       -4.7777519388       -0.3599220590
Li          3.1797213790       -8.1094913480       10.2013767519
Li          3.3029473725       -2.9220393076       -5.5056939573
Li         -2.1734089682        9.3737435305        6.9815192798
Li         -1.4443888748      -10.9120111502        7.4930640666
Li         -0.8977022841      -11.9797352230       -5.6807611336
Li         10.4714182994       -5.8160669838        3.6755940258
Li         11.9720731192        4.2845734684        2.0054807521
Li          0.0177387838        6.6874072902        5.4654134722
Li         -5.8964949680        9.0374503328       -5.5848989679
Li          4.7662970819       -2.8557228418        3.3488836883
Li          3.3559435686       -3.5233818156       -9.1961464167
Li          3.2732431066        4.2935810158       -4.6618621103
Li          3.9169623081        7.6777122060        8.9539453211
Li         -1.4347592053        4.5049000495       11.6021869289
Li        -13.1776454229       -0.1565047402        5.0567818172
Li          6.1824177267        5.5898909742       -6.5551264058
Li          7.1030195726       -5.5015535538        2.0347791266
Li         -0.8818759172       -0.9021023453       11.8090913896
Li         -7.8901345894       -4.1098273443        4.2486995539
Li         -3.1025569488      -10.9429709486        4.0194680340
Li          1.8427175725       -5.3702913637        3.8353604778
Li          9.9875791186        2.4546235494       -2.6837051180
Li         -1.2646324415       -1.4011061312        4.3664670503
Li         -0.4103989202       -4.0415357878       13.8421727564
Li         -0.6622585726       -4.4994181261        6.4656300613
Li         -0.0579884751       -7.4028217123       12.1902177832
Li          5.2418616357        9.5508675441        2.7218643795
Li          5.8800498254       -5.4618812083        9.4947154405
Li        -12.3794826277       -2.4814354776        8.0614322924
Li         -4.7629933812       -9.0849739886        6.9456140901
Li          8.4587910303       -2.6808713994        8.8095843851
Li          9.0174061305        3.6164079839        7.5920534091
Li         -2.1660999726        0.3337531966       -2.5141748480
Li         -3.4897007490        5.6764272262      -10.4899072216
Li         -9.7014965198        8.7299324692        7.8860236401
Li         -0.5443083996       -4.2950741109       10.1486770850
Li          1.5920684716        9.8143508433        6.6814719892
Li         -4.6354952532       10.6341708905        4.2603314840
Li         -9.8120783924       -5.0214786238        9.3703756580
Li          6.4572159691       -2.5289047528       -0.1724424873
Li         13.0877595126       -2.9680726865        3.1486004820
Li          4.1089942529        1.1405794808        8.1443683412
Li          2.3525196234        4.5324190419        7.7140787606
Li         -3.8054167298       -2.1749122096       13.7070855179
Li         -1.6568661749        2.5116307762        0.3660980870
Li         -0.0686211869        5.6761995615        1.5814330358
Li         -9.2722620449       -1.2352051383       10.0146855180
Li         -8.0630025499        0.2001860052       -1.7268648376
Li         -6.5259574288       -5.9697195038        1.2774227107
Li          2.3942130084       -1.3597964702       13.3867089281
Li          5.6799602415        3.8002823235        5.8497088050
Li         10.7416561472        0.2068524003        8.0069565358
Li         -2.9987423916        1.6183560774       13.6887636407
Li         -3.6816541741        6.7947984686        9.5168580848
Li         -6.8963152812       -3.7376208028        7.8276738253
Li          0.7711956512        1.8552942163        9.9714137371
Li          5.7205671320        4.3350334917        9.5374199370
Li         -2.8008481815        3.2724686313       -4.5705695315
Li         -5.5889032962       -0.6712772381      -11.3992964643
Li         -5.2161604892       -6.7251791473       -8.6703048770
Li          6.3647663483       -2.2968298792      -11.2157466511
Li          2.8660347564      -11.3342847145       -5.6376568657
Li         -2.2804500669       -0.8323035938       -9.7119451559
Li          4.7603013313      -11.1344383777       -2.2154599917
Li          8.5381613684       -3.6170387558       -5.0175942892
Li          8.7092472457       -4.2571459182       -8.7922708076
Li          2.7523980274        7.2618600274       -6.8359606618
Li          1.2842036738        9.2123617698       -3.8152300397
Li         -4.7500932025      -10.9075594988        0.5421741494
Li         -3.6602390389       -2.8436315851       -3.6552194013
Li          0.4055508657        3.0210476430       -2.7337883405
Li         -1.8635179605       -7.4189265890      -10.5450564266
Li          0.9010430614       12.0989777748        0.7231216288
Li         -3.9815350283        9.1671741005       -8.8756674516
Li        -14.4429177254       -1.9628359459        1.7704509124
Li         -6.4456897615       -9.0870477061        3.4443628247
Li          6.0753088423       -7.7197367225       -0.9342840156
Li         -2.2229246298       -0.2622084625       -6.0886315340
Li        -13.4190677203        1.7141287592        1.7123098388
Li        -14.4141382483       -3.7026214496        5.0951124838
Li         10.3113667282       -9.8517608849       -5.5591105188
Li         -1.8312688296       -1.7975810093        0.8740552637
Li         -5.9367348310        9.0574494772        7.4396469082
Li         -3.9575126872        4.9282816529        1.5850811898
Li          4.2426653771       -8.0901989933       -4.4000035243
Li         12.5188294242       -0.0862845813       -3.9791954534
Li          1.8202096631        6.2340378630       -1.6796827900
Li         -3.4152102647        6.2278260441       -6.7014776019
Li         -8.6317344507        0.5192185372       -5.6228035537
Li         -5.1421910294       -6.0653966297       -4.9150389094
Li         -2.7967062377      -12.3083274585       -2.3452317869
Li          1.9052632923       -5.5455027708       -3.2019594934
Li          0.4815387371       -8.5819623788        2.2672553994
Li         -3.0855282924       -8.8563305321       10.3057320806
Li         -1.1045153337       11.9130886519       -2.5695270740
Li          5.6701249889        8.5604244091       -8.7351419506
Li          6.7435432067        7.7436612938       -0.2732167576
Li        -10.6313840612        5.0324473239        8.0331613330
Li         -5.3970552965        3.7500713581        8.0791560493
Li        -11.1376401849       -2.6356682870        3.2963506842
Li          2.8080468291      -11.4269669916        1.1847723127
Li         11.5100679171       -2.3963614600       -6.9059823187
Li          0.7374577193      -11.4493891860        4.4819704012
Li         10.3335940234        1.0288281738        0.8402125348
Li         12.8647301960       -1.5376263280       -0.4079390251
Li         -9.5491047600        8.0397010002        1.2952474984
Li          7.9090506489       -7.2988826770       -4.3362724131
Li         -8.3593572793        9.8131805732        4.5097240618
Li         -3.6002290483        0.8507459811        2.7508842905
Li         -0.1620334365        4.8783822566      -12.2908517158
Li         11.2505215301       -7.6129764115       -2.6514286001
Li         11.3898433093       -3.4193460955        6.5495500793
Li          0.7068645628        1.4586525249        6.3835354575
Li         -1.0580688216       -1.1851825131        8.0679831027
Li         -4.0490463138       -2.5813535040        6.1198740329
Li         13.6382513848        0.8344313449        2.5245097533
Li         12.9359457131        3.7125003226       -4.5652895885
Li        -13.4700468667        3.5253112835       -1.6355809166
Li         -7.7715887107        8.6558869430       -2.1678361025
Li          3.1457066098       -2.3329064748       -1.7931493297
Li         10.5945297318       -0.4172939652        4.3449916428
Li          0.3976267892        1.9461126805      -10.0949742603
Li          5.2436806653        4.5439623522       -1.4060755628
Li         -8.9756650511        4.6220808478        3.0120532277
Li          4.5570543970      -10.9988296639        4.6066011389
Li          4.1316440209        1.5642787870       11.7554712413
Li          2.7854860085       -4.7374790139       11.7597288846
Li         -6.1471089954        0.1804524813       11.9190535933
Li        -13.0864777317       -3.8398627090       -1.3071973739
Li          0.8190011525        2.1522213855       13.6106504441
Li          6.6902449201       12.7661668948        3.8699546991
Li         -1.5171876752        4.1556836000        7.8736589704
Li          3.7702611661        6.3697510585        1.5563599598
Li         -0.7188825008       -0.7236073668       15.5469084056
Li          7.4625762472        0.9366778325        9.9058594488
Li          7.7397018514        8.9182943952       -5.4780057186
Li          5.1790989524       -2.3927085414        7.2881937046
Li         -3.2630584582      -10.0435065741       -8.1443674068
Li          2.2016621904       10.2250836897       -8.9987527376
Li         -2.0352996441        5.5666049612       -1.6421313981
Li          0.4972869515       -8.7527044845       -4.4632288544
Li          6.5589573991      -10.6769920746        1.1989753413
Li         11.6160347153        5.7311384032       -1.5638049064
Li         -7.4769988171        6.3447584970        9.8058701005
Li         -2.5508040263        8.5756550621       -3.7322346761
Li          5.4518957037       -2.0106957781       11.1000783966
Li          4.2067724642       -8.0448429612        2.4702022835
Li          3.2783459200        9.4333880895       -0.5515426096
Li          3.8673269491        7.1263969280        5.2768555357
Li          1.0090941291       -0.9672233661       -7.8581489294
Li         -0.7060939495        8.8679631519       -7.0425480019
Li          0.7410881667       12.1766060435       -5.9721805536
Li          6.6158716314      -10.6337134542       -5.6009852924
Li         -0.4213170383       -2.9912749037       -2.0986113740
Li          2.6011936569       -5.1013648177        7.9433354062
Li         -3.0688480718       11.5604366022       -5.8695971321
Li         -6.4423034628      -10.9491804650       -2.8597596703
Li         -0.0484556250       -7.6763845758        8.5327490739
Li         10.1566537230        7.6692178937        1.4594322421
Li          1.4422006222        8.9143142052        2.8216766535
Li          9.0805107632        0.1119286547       -5.6380067289
Li         -6.2116593702        2.8715258655      -10.0113276391
Li         -6.4912935842       -3.2919844415       -1.4588938579
Li         -7.0942895776       -3.3747288955       -9.0399868920
Li          7.0182627923        1.2055190243       -0.8187195471
Li          7.2907556442       -0.2041238731        2.6700223647
Li          8.0654213865       -3.1495570300        4.9569417396
Li          4.7787544574        7.5987159841       -3.5864587594
Li         11.1306308571        7.1082698886       -5.1282566542
Li          8.2113784248       10.9489571201        0.8823420366
Li          0.1230371304        7.2434149018        9.2349735463
Li         -0.9971353132      -11.8791640097        1.0552169214
Li         -3.2759467010        1.1537274717        6.3498449175
Li          5.5271292345       -4.7763344758       -3.0673909163
Li         -0.8703071291       11.4433210398        4.0967618324
Li          5.6495445478       -8.7703933739        7.4774010478
Li          8.6302370126       -6.1642383935        7.0223326764
Li          4.2605999756       10.6135997519       -5.7598610893
Li          5.2635985747       -5.7741850043        5.4475638225
Li          1.0309857537       -2.1091116316      -15.1641148257
Li         12.5017123100        5.1237811477       -8.0768715673
Li        -11.6207953637        4.0679293714       -4.9433270252
Li         -4.9834587790       -7.7990595732       -1.6014945771
Li          6.6269604446        2.5950099958       -4.3207507615
Li          9.5095728791       -1.3267254513       -2.0855794447
Li         -8.2737680424        3.4518182737       -3.2824193164
Li         -6.0506782648        3.4364270365       -6.2219419878
Li         -4.4011325268        8.0788641632       -0.3810421671
Li          8.5833662013        9.5051211897        4.4652387491
Li          6.1158889324       -1.1264283785       -3.7343398935
Li          2.3190382819        3.2274773565        0.4241730986
Li          6.7726581801        2.0802724516       -8.0572193796
Li         -2.3559880520        8.1774730068        2.8686915483
Li          8.8640783295       -5.0592322838       -1.4113331700
Li         -4.8754343998        2.9958801215       -1.5308261389
Li          0.8093300119        0.0929842336       -0.5784353929
Li          8.6229501253        4.4421954390        0.3047928385
Li          7.6057978461       -8.5164966291        4.1662610661
Li          4.7315555696       12.6361995391        0.6038036096
Li         -4.7975618641       -2.9297920156        2.5731396698
Li         -1.8640392181       -6.8147992332       -6.9062940572
Li          3.7237055510        1.3328439940       -2.4634751192
Li         -8.5620730362        2.4314855545        6.2699327787
Li         -1.6974666526       -4.8042347563        3.0603811671
Li         -1.3835544086       -8.9990660640       -1.1174263850
