360

Li         10.7104222293        7.1235671320        6.1704747139
Li         -6.0042964195        1.9572420906       -8.0864699927
Li         -8.8525746856       -5.4911797429        5.0216905914
Li         -8.3193060009       -1.0169674892       -7.3920836742
Li         -4.4313735167       11.6328944759       -2.6183478704
Li         -0.2880495206       -9.6503810545        1.3810978421
Li          3.1042981329       -2.1597679427      -12.3945797405
Li          3.2974014018        1.7192885440      -12.5714229887
Li         10.3421516043       -4.2999535007       -5.9622221306
Li         -1.4187846970       -1.0464184991       -4.6201634473
Li         -8.5320208590       -1.7397594711        4.7115341171
Li         -0.3026452653       -3.7921220946        5.1022483690
Li         -0.9867453166        6.3052187146       -2.4157961659
Li         -4.2583959248        4.5099661134       -1.5032891120
Li         10.5075509582        2.2672695154        1.6851998180
Li         -1.0210418975        6.5134383308      -10.9008407307
Li         -4.6923485555        7.8314535241      -10.6392709148
Li          9.0629882290        5.5549526499       -8.8276488376
Li          9.1069542090       -7.5734327281        4.6878149169
Li         -2.7959599922       -4.2355111874       -5.9493207891
Li          3.1874258670       -5.6626549439       -8.3144006327
Li         -8.7949450030       -1.4145491670      -11.0681992989
Li         -0.9034561734       -7.0521667470      -11.5033302200
Li          3.4821488219        2.2396094399       -0.7687558615
Li         11.8188453039        1.0506981263        8.6975831767
Li         -5.3138996021      -11.7816020039        0.4827087437
Li         -9.5200494775        2.0036781527       -9.4124962263
Li          9.5519803076       -1.9304023239        9.4422043927
Li         13.9685085924        2.1884521082        2.9900218272
Li        -10.1179599275        5.3453389238       -7.5811006490
Li          5.3749084855       -3.5846629408       -2.0778903874
Li         10.8925766317       -0.4654992795       -6.3247866217
Li          3.3105306777      -11.5939070100       -3.9980570348
Li         -2.6760083426       -9.9922261000       -1.6325506204
Li          4.0625589607       13.3121807675        2.8139003801
Li        -13.1686837594       -3.7768535482        0.3954765892
Li          2.0486638987       -9.0891524069        4.2876272666
Li          3.2584721023      -11.7969437927        6.3352078218
Li          0.8502269225       -3.3296281646       -6.4780710791
Li          3.3990242487       -8.6848271554        0.6836121711
Li         -7.6705621560      -11.9116249708       -2.5938145755
Li          5.3345276858        6.8543846298       -4.8471261340
Li          0.0184543232        0.0374652031        0.0182763449
Li          0.1048810434        6.1615302954        4.0928400161
Li          0.8271508040      -12.5420895126        3.3417319723
Li         -9.0268602414       -5.4755581309        8.8699714817
Li         -5.3207596884       -1.4393317661       -9.7283775745
Li         -6.2799884736        0.0465048890        6.9747205347
Li         -5.0481356695      -10.1747709283       -4.6554231684
Li         -3.2594780158       -1.6415009632       12.6123220683
Li          3.3421659517       -1.0613623862       14.0312938784
Li         -1.3984430342       -9.3540415237       -5.2498084761
Li          1.3675317926        0.7981542705       -3.1481340712
Li         -0.2740308024        0.3319835382       14.2036937156
Li          1.0810120572        0.4894967628       -6.7870520644
Li         -0.4828519008       -6.6234652918       -7.7961566879
Li         -2.0129550217        9.1704544031       -4.2562614281
Li         -6.6245331020        5.2968631177       -6.3204291681
Li         -2.8061203839       -5.3579129454        7.1571240240
Li         -1.0510660420       -0.4182109112        6.8182101433
Li          0.5444382166       10.9306831294       -6.4814958385
Li        -11.7443895338        2.3079290048        3.0767333288
Li          2.3330461513        3.7672580395        2.3242835121
Li          1.8735457789        1.5130717486        8.3046882846
Li         -6.7820496361       -4.7164487103      -11.0636276413
Li          6.7386388253      -10.4445351843        5.4098682802
Li        -12.3295322655       -5.4594675415        3.7208156009
Li          7.1772560792       -4.8764738874       10.1187037446
Li         -1.3287572504       -6.7118988436       -0.4932182874
Li          8.1388851326       -1.9859189337       -4.2281042789
Li         -7.1425063594        4.9499581703      -10.0876294905
Li         -0.0728434734       -6.0880827692       -4.0665904098
Li          8.5736135322        1.8189300700       -4.6751000141
Li          1.1848314624       -2.8218784426       -2.8091155095
Li          2.8408552804        5.4313193187       -7.1167395259
Li        -11.3138643645       -3.2807521008        6.6928248998
Li         -2.6584768390       -2.2165532051      -15.6269475338
Li         10.2412232902       -6.8581593694        1.0052276101
Li         -4.0411660063      -13.2685633599       -2.7946502196
Li         -2.9010676892      -11.4503955198        3.5413430043
Li          1.0244562984       -9.1542375428       -2.2520452272
Li          2.3544448391       -5.7746910678       -1.1545497082
Li          0.7091106403        0.1247775497      -10.4755625140
Li         -4.1706555151       -7.4693018527       -7.1794673751
Li         -8.4193498341        6.1513797143        8.7042159022
Li          1.3581253811        6.7826469442        0.5183604169
Li         -6.0324194455        0.2829203617       10.8065888918
Li        -10.2938417064        4.3790560249        6.0000809051
Li         -9.6816506675       -3.8443297469        1.6732325037
Li          1.6536729368       13.0474704651       -0.2399512752
Li        -12.4323257845        2.3876135682       -6.8876051625
Li          0.4789804853       -3.7437658786      -10.1540638924
Li          5.4655978585        7.0016089110       -9.0836227130
Li          4.3005864217       -8.1559864969        7.0112016299
Li         -3.9838717526        4.4931621610      -12.3407693741
Li          9.4427615316        0.0866926915       -1.3194139946
Li         -4.2631847103        8.2299440421       -6.9767141477
Li         -3.4521357200       -2.1670660823        0.7909412581
Li        -12.7232325219       -3.7765044645       -6.2192548443
Li          7.8848614412       -4.5733374281        2.7512707011
Li          0.0735384564       -4.1116386223      -13.8243049024
Li          7.7607804151        7.6131033965        8.6164156929
Li        -10.8458217162        0.5464305432        6.3644989380
Li          6.5688638157       -6.6814041545       -0.1261535724
Li         -1.8563580624       -9.8997308152       -9.0140712573
Li          7.2196759542        7.1080420189        4.8583538655
Li         -2.3232212206        5.8522985786        1.1810492538
Li         11.4486699888       -4.6430270591        3.9912516854
Li         -8.9522206493        3.8334787361        0.9251237389
Li         -3.2366399007       -4.6780795112       -9.6195086769
Li          4.2937213743       -4.4403528034        1.5304637772
Li         -1.6188997672      -12.9744415645        0.2712891758
Li         -3.8595460995       -2.2832326799        5.0964958920
Li          5.0883552251       10.2516977381        4.6930709555
Li         -5.4160161472        7.5784101979       -3.4382085993
Li          6.3159912760        0.0312902951       -6.9334061049
Li         -7.7421801924        8.2558882223       -8.2720974405
Li          4.6515028718        7.9811027413       10.8764431401
Li          2.5264831502       -1.8028316194        6.6807151384
Li         -2.6069257887       -5.0455230657       10.9868028110
Li         -3.5943719831        4.8730143196       -8.6710930567
Li        -13.6429649615        1.7201839289       -3.2869406815
Li          5.8155353053       -4.1078433430      -10.5408450417
Li         -2.0109461716        2.1429007854       -2.9781825859
Li          7.6118827259       -5.7909103588       -3.7459614981
Li          1.8307233588       -8.9880272282       -9.6161749057
Li          7.6752994280       11.9747918540        2.6567267401
Li          4.0207826107       -4.4187683986       12.3733349323
Li         -5.3339501951        3.6559526721        2.1073901882
Li         10.2664407435        8.8107400917       -3.7924660389
Li          2.2450350754       -8.4785214332       -5.8529806435
Li          3.6285319531       -4.8011824750        8.7027755974
Li        -12.1509507892       -1.5745513030        3.4126239583
Li         -1.6443750130       -7.9723881569        4.6003817369
Li          9.2868316872        3.8933378854        4.9677935481
Li          3.4763854351       -1.8269855245       -8.6559335697
Li         -0.3501513963      -12.4835709429       -3.3711147499
Li         -1.3428493287       -0.7291479450        3.1757015052
Li         11.7889091405       -2.2288633360       -3.0385222056
Li         -6.4127922068      -13.4361500070       -5.8187565094
Li          0.3221649850        9.7262173249       -1.3508598312
Li         -3.6785564639       -6.9300720043       -3.4821538142
Li         12.7532551700        3.8504676441        6.2519289394
Li          2.6442624955        5.1231607726      -10.9455493840
Li         11.2645267536        0.6469321906        5.0199859682
Li        -10.1575772936        1.6537167672       -2.0294865126
Li         -7.5641744730        5.8667057551        3.7814584454
Li         -5.7379590872       -1.8303937981      -13.3997842690
Li          9.9390000025        8.8358912029        2.7945801439
Li          8.7035914645       -2.2091244424       -8.8200468048
Li         -0.8321404742       11.8164343182        7.0342714571
Li          5.5722794703       10.7650744213        8.3670701473
Li          5.7742200642        1.9029440384       13.4285061683
Li         -8.6622715027        2.2909062685        8.8640317620
Li         -2.2574015605       -1.8344125105      -11.9464897168
Li          2.7939688084       -6.0361705563      -11.9850213095
Li          2.2934821401        1.9075958049       11.9748070803
Li         -8.4961070675       -5.4913279703       -1.5737984938
Li         -5.4636619990        2.2894356660       -4.3510325149
Li         -0.0516064353       -3.4432532540        0.5581029786
Li          4.2026524772        7.5350978480        7.2010250084
Li          4.2981739884        0.7114933484        2.4283729602
Li         -5.5421710946      -10.7163073568       -8.3553412898
Li          6.4898255429       -1.5013218216       11.8220485540
Li          6.3496080927        8.7330412956        1.4649020204
Li         -3.1487262305        5.7416183841        8.3465194633
Li         -0.5063108287      -10.8466444849        6.5152144777
Li         -2.4969825903        1.8717677381       -6.6543780596
Li          3.6301477928        2.0593772259       -8.8528394901
Li         -2.7517393171        6.1158752227       12.0171727917
Li          8.5809496886       10.3389684457        6.0310113236
Li          4.7300597598       -7.7575641120       10.6742349768
Li         -0.4430777799        3.8177400131       10.1829345698
Li         -9.2581429938       -3.8229692241       -4.9390149229
Li         12.3674258993        5.5439622331       -3.6808422674
Li         -5.7732271759        4.1894359250       10.5791872541
Li        -11.1893177551       -7.1472560229        0.4897370240
Li         -6.2177709017       -3.6019257004       10.8800880805
Li          8.9817340907       -2.2993482207        5.6741368890
Li          2.0381671130       -2.0776941066        3.0018312208
Li         -7.5952426542       -7.0871280729        1.7868662576
Li          2.8245461515        4.3010923948        5.9730657022
Li          8.7942661727       -8.9293201599       -1.9177978015
Li          6.6915291060       -1.5093407842        0.8011970543
Li          0.9426238994        7.1264936355       11.5293791056
Li          6.8140539997        4.7847341339       11.0901560734
Li         -8.8550665042       -1.5940072870        8.9481155596
Li         -6.9733642871       -2.2251590347       -0.4029592743
Li          4.7247606878       -8.1868719444       -2.9021425469
Li         -5.6737370338       11.2329157774        1.0465859574
Li          4.0170646367        8.5220574498       -1.6071568123
Li         -6.8853245405       10.7457573940        4.6906926845
Li          2.9478182154       -1.4568344002       10.3610350660
Li         11.2211893789        7.2274523863       -0.4512325071
Li          8.9959477834       -3.7587888972       -0.8911194714
Li         -3.3651194956        8.7670623174       -0.6522371577
Li          9.8548354063        4.3565839392        8.7272895436
Li         12.1919340628        1.6561329033       -3.3734472805
Li          0.3322878180        3.8622761183       -5.0707548239
Li         12.5337310106       -3.8690351320        0.3362837918
Li         -8.7454541313        9.0063248284        1.9544608438
Li          6.3437952138        4.3566597598        7.3869726192
Li          2.6980052933        2.2924011687       15.6568756579
Li          5.3518921704       11.8563081986       -0.4482243963
Li          8.8281220126        1.4858722294       11.0974293477
Li          3.6903112695        5.1437471166       13.3183905462
Li        -10.2307028884       -8.7248640729        3.8367163850
Li          0.7528968811       -6.8418323172        7.1226107774
Li          0.3537475675       -3.0784635357       12.6097466147
Li         -6.3222782662       -8.6573296088       -1.4266315810
Li         -0.7187026793        6.9147796456       -7.0857905692
Li        -11.4103426568        4.7193338202       -3.9569228255
Li         -4.6865933500        8.2711108007        2.9357589441
Li         -9.9133604392       -8.7597889727       -2.7589930048
Li          4.4694479025      -11.5485323049        2.6521733595
Li        -11.7866175733       -0.9775493201       -8.6664239731
Li          3.8896267187        2.3553577113       -5.0590117659
Li          5.7131131689      -11.1460336172       -1.0100287515
Li         -6.6098727112      -10.1914759076        3.7040079474
Li          6.0722434419       -0.2032130075      -10.7647837337
Li          3.2695281936        4.7479098539        9.6453605834
Li          4.9600454223        5.4750691532        0.3219711924
Li          6.0351285292       -1.8873207875        8.1136044575
Li          1.6806289260        8.0539991659       -4.5709573348
Li          8.5252352462        5.5633308022        1.6038962995
Li         -1.8427953339       -1.4438038847       -8.2782973532
Li         -0.6746861506       -0.0508217044       10.5087525239
Li          2.6862338683        5.1434926135       -2.7101825234
Li         -6.3583832377       -3.8209242947        7.1054198698
Li         -0.3163909999        3.1546798264      -12.5746612454
Li         -2.2026808152        8.5601794061        5.8842969825
Li        -11.2347824922       -0.5729953382       -4.9887138955
Li         10.1943452163       -1.5800723479        2.0610266610
Li          4.2711354320        9.8282681066       -6.6759329039
Li          6.9268514999      -10.6608672636       -4.6522190271
Li         -3.9831266906       -8.4461798278        1.6367307417
Li          9.6341098420       -8.1071689589       -5.6223963702
Li         -2.6548617450       -5.0662734529        2.7363732009
Li          1.8519458562        8.4373930857       -9.1810673469
Li        -12.0224667701       -5.4765388343       -2.8724282342
Li         -9.5880023002        8.1855451253        5.6573715822
Li          6.6594467541       -5.2251667988        6.3515250946
Li         -4.4857892220       10.8964068444        7.6600441324
Li        -11.1803297297        6.1388043750        2.7083134205
Li         -4.8466888271       -1.0455399068       -6.0570526643
Li          7.0037740525        2.2970037323        0.4302545085
Li         -3.6529169979       -5.0703024941      -13.2910334980
Li         -4.6158705276       -7.9109440256      -10.8504128776
Li         -8.9473942456      -10.3429181211        0.6306915448
Li         -2.0362964888       12.2330098614        0.3554368301
Li        -12.4895069892        3.9462048002       -0.2997977254
Li          8.8915784694        5.5752924777       -4.9825144055
Li         12.4651473231       -2.3119725124        6.9206714794
Li         -5.2967815368       -6.7704694754        4.8807647603
Li         -3.5950145496       -1.9836040726        8.8929681902
Li         -5.8153011253       -0.1477238835        2.5706045264
Li         -0.7899400919       12.6220953308       -3.3084710814
Li          0.8870273546      -11.7341765587       -7.0042328278
Li         -7.7296448069       -7.5482512112       -8.5881026965
Li          5.4560897715       -7.5063330448        3.4706602102
Li          1.8001632292       -9.7457837627        9.2424246681
Li          4.5350167505      -10.8118553031       -7.6260026830
Li        -10.4758450050       -2.1928143592       -1.6536518173
Li         -7.9134524983       -8.5649130913        6.8703913702
Li         -6.1484164117        3.8956491898        6.7603754703
Li         -8.5680504819      -10.2880056726       -6.0059882552
Li         13.6795630117       -1.6420540287        3.3234248242
Li         13.2033988879        3.8571905780       -0.3577615812
Li          3.5146567597       -5.2174570250       -4.6582336974
Li         -6.6980866737       10.5191813159       -5.3744396184
Li          5.8005291298        3.8809028112        3.6602813032
Li         -3.1899162452        1.4400283697        0.3922684084
Li         10.1536372207       -5.2708570312        7.6144702511
Li          1.4452598307        1.1135450993        4.6430066893
Li         -6.1807821810       -3.8479403870        2.8698215185
Li         -5.8664952903        7.6598949749        6.4758730911
Li          7.9552461975        8.6493789945       -6.8324327221
Li          8.9776657079       10.4281720024       -0.5818147241
Li          7.7721742194        0.6824399847        3.7250965094
Li         -3.2699633091       11.6764361616        4.0339912069
Li         12.0507918621        5.5519226381        2.9064623794
Li          2.8392342972       12.6595148274        6.4114341200
Li         -1.7871523566        9.0671557858        9.6459528645
Li          3.2242521761       -1.3728812092       -0.3703728554
Li          5.3527854586        1.5081054384        9.7555068090
Li         -3.3047109046        1.1365524581      -14.0013015574
Li          5.4935695963       -2.2205937686        4.3770793064
Li          2.0738369382      -12.1530514068       -0.3211785972
Li          7.7800420811       -8.1820458392        8.3069989797
Li          9.7168575340        3.9234552793       -1.6388070858
Li         -3.2218899211       11.8766536656       -6.3027774257
Li          3.1994611500       -5.0943166207        5.0403501886
Li          3.7098413655        6.9998323097        3.5100232306
Li         -4.2303227748       -9.7418940641        6.7111687591
Li         11.2281322621       -6.0614313471       -2.6720711857
Li          0.0255129875        3.5350025627       -8.8378262622
Li         -6.5254238285        6.7539001495        0.1602542362
Li         -5.4286526377       -6.9232727165        9.1291418895
Li         -7.7522989791        9.7938514213       -1.7223094854
Li          1.4419560347        9.4277103125        5.2757346282
Li         -1.1587685434        2.8946820969        2.8334698607
Li          6.2546227921        3.6806101050      -10.8356562556
Li          0.3876282259       12.5586943484        3.4061747721
Li          1.0584934001       -6.4378122198       10.9381563787
Li         -6.4558041492        1.5741784621      -11.7938222989
Li        -10.6815805264       -7.0526674889       -6.1392145529
Li         11.3551772807        3.3638586383       -6.6521399738
Li         -3.1670919091        5.1633678824       -5.0109625811
Li         -7.7429629688       -0.6130971687       -3.6983859977
Li        -10.1967700171        6.9350467948       -0.9693099536
Li         -3.0641590850        2.2381877279       12.4304190939
Li         -5.7735944652       -3.8154421662       -3.6355266572
Li          8.8936451977        1.6743405905       -8.9028068628
Li         -2.7687455651      -12.6054139065       -6.3994054855
Li         -1.7626168051        9.8209765001       -9.2049135818
Li          0.3132320712       -0.2550289033      -14.1700565461
Li          6.6490857763       10.2737737283       -3.6673163131
Li          6.2158587387        3.9273864119       -2.8395178434
Li         -2.9143727180        1.5284599746      -10.3321425408
Li         -0.9907147790        9.2304676922        2.2820406284
Li         -8.0942557060        2.0626769287        4.2628724753
Li         -0.8188662605        3.4014007992        6.5050041896
Li         -2.3062377270       -3.6985456458       -2.3019204233
Li         12.9925665896       -0.0237802721       -0.0432998482
Li          7.7990363858       -9.7190917947        1.7588287535
Li          5.4838831545       -7.9773301966      -10.1035770680
Li         -7.1952626128       -7.0413699194       -4.8309726164
Li         -7.8474998964        4.6464764428       -2.7195371985
Li          7.6293113485        7.1695009810       -1.7495161579
Li          1.0174002941       -6.2271875822        2.4412784434
Li          0.0776990096        3.5165474781       -0.5372640305
Li          0.0086567280       -3.4615422722        8.8718678854
Li         -9.4043414542       -0.0101655519        1.3528542762
Li         -9.0665699043        7.6487536832       -4.6526827564
Li         -6.3148540400       -4.2924572361       -7.3609080648
Li        -13.9366949421       -2.1108019211       -2.9541881977
Li         -1.8148777716       -8.3614244587        9.2248089917
Li         -9.8251792042       -4.2879817435       -8.6990968449
Li          8.3495262499        1.0860489097        7.4204793413
Li          2.9389793825       11.5299776990       -3.5075936710
Li          4.8749676272        1.1120736622        6.0815896030
Li         -4.9300776255       -5.4016073431       -0.2944668307
Li          0.5174083070        6.6950503863        7.8225100185
Li          2.7100522613       10.0570702328        1.6646015456
Li         -5.4395307948        8.0613430753       10.1387890786
Li         -8.9497186270        2.3710176157       -5.6443925236
Li         -6.6569725943        1.5799446099       -0.7741656665
Li          5.8523414288        0.2214166991       -2.5420282285
Li         -3.4800467687        5.2971772551        4.6890694304
Li          8.4634842268       -6.0684989072       -8.6655092260
Li         -3.7531275728        1.5763238763        4.9218343792
Li          6.3945667287        3.8984507145       -7.0614311257
Li         -4.2715857713       -0.6446406696       -2.4063032861
Li         -0.0329352122        4.1883760592       13.8538372102
Li          5.9098277295       -7.5759492396       -6.4397330096
Li          3.7843898512       -1.5017403845       -4.8886815267
Li         -3.4400957976        1.9037658740        8.6911935919
Li          6.1875702692       -3.8160278659       -6.7217922256
Li        -12.9541179866        0.1022970362        0.0803568550
Li          1.8979092565        9.9740875688        9.0376703829
