41

Li         -3.1383105354       -4.0512825848       -1.8110137023
Li          4.3324526578       -1.1228924439        4.3081749019
Li         -0.2194348819       -5.5714678284        0.3708316502
Li          5.6698955879        1.6995550083       -1.4825838195
Li          0.9044865963       -2.1241129928        5.4591094711
Li          1.3203535008        6.4697232708       -0.8238091558
Li         -5.1310761737       -1.4716258075        3.2591141461
Li          2.5573683019       -3.9756121118        2.4599282650
Li         -0.0246106453       -2.2817631734       -1.0852538459
Li          3.0219172930        3.9482962789       -3.3456836870
Li          2.6556493823       -0.0878881584       -2.0113042736
Li          1.9770067084       -0.5734198629        1.5094391710
Li         -0.9280436617        1.3579167817        1.7740941796
Li         -2.7252682316       -3.5466681626        5.3867162876
Li         -4.3143521183        2.2753949611        2.5076198658
Li          5.7079165640       -1.9205282633       -3.0510049196
Li         -6.7600541958        0.5693314671        0.2682781882
Li         -4.1204734204        2.7297759013       -1.3192612769
Li          1.6459947612        2.8170400617       -0.2726323743
Li          3.1038402317       -3.9966954660       -1.2730069964
Li         -3.0093852441        1.7962742524       -4.8716775345
Li         -6.3580745854       -3.0841030832       -0.1150564347
Li          0.1320773778       -5.0960834104       -3.4293025187
Li         -2.1313832561        0.1569178428        4.9709988958
Li          2.2489930512       -2.2855337231       -4.7672839659
Li         -1.5319789016       -1.7330643356       -4.4334632663
Li         -1.6493493099        4.7149319472        0.7079653081
Li         -3.6803977525       -4.7559781628        1.8710761766
Li         -0.9582206606       -2.4515628787        2.4018434487
Li         -1.4346634793        3.8846910342        4.4246513178
Li         -1.0632260757        0.9624136475       -1.8523817081
Li          4.6516465416        5.0329456508       -0.0237395035
Li         -3.3376574365       -0.8910598663        0.2628041332
Li          5.3147959612       -1.5326935826        0.6506902048
Li         -4.9339236415       -0.7688494042       -2.9115398394
Li          0.7630056492        1.3198564568       -4.9785212222
Li         -0.8281283458        4.3379317189       -3.0315745745
Li          1.5315649389        1.5062320397        4.5838223611
Li          1.7849805811        4.8057689343        2.6618262146
Li          4.4679260446        1.9995275678        2.1420209796
Li          4.4861408221        0.9383604791       -5.0909105477
