58

Li          4.9397493908       -1.1124279330        5.7446961683
Li         2.7045978734        5.9907749133        3.9288572277
Li        -1.4641746370        6.0049653601       -1.2701373305
Li         0.5685607043       -3.2440586313       -5.0882044651
Li         1.5398840011        6.2499359092       -3.6427236759
Li        -4.5232187352       -0.3631220483        4.1472570811
Li         4.4854598273        4.2294862395       -2.2505949575
Li         4.1613184761       -3.0202831748       -3.6575931324
Li         0.1925344563        3.5637932237        5.5077574134
Li        -5.5099884950       -0.0649602272       -2.0385345263
Li        -1.3572123917        3.9089608879       -4.5463288765
Li        -3.4189181175        3.3673127536        4.0974228792
Li        -0.5785004440        0.4012471043       -6.0200780087
Li        -5.6037808010        1.9571539991        1.2264543828
Li        -7.8294378863       -3.0048569965       -2.1170018861
Li        -3.1264696756       -0.7998449474        0.7195972839
Li         3.0590799446       -0.7023027291       -6.5127496249
Li        -0.2355058321       -2.8639866124        2.1287899423
Li        -1.5835603598       -2.4653647153        5.5884687488
Li         1.6145688798       -5.5352173919       -2.1320510460
Li        -3.7623303249       -3.8948860306        2.7224499327
Li         2.2060087430       -5.6586998902        1.7115226444
Li        -3.0652717540       -2.1250359462       -4.5396198833
Li         2.1465220237        6.2004260278        0.1422723322
Li         0.3399879025        0.1585527865        0.2017297642
Li        -5.5575154070       -4.9193250627       -4.4413087232
Li         2.7428531546       -2.5317268782       -0.2452215907
Li        -0.9768626690        0.6027454461        3.5602606693
Li        -0.8755475990        5.8651537015        2.5633189932
Li         3.8187388191        1.1274819352       -0.2900725406
Li         5.1593734908       -5.2526273027       -0.7022471834
Li         5.1131006034       -3.2272170772        2.5523233080
Li         1.6843281584       -0.2734394246       -3.1429124615
Li        -1.9648564218       -5.6859469013       -3.5096659889
Li        -2.0375641701        2.8628668599        0.6647965507
Li        -2.3161622299        1.0467409989        6.9456537849
Li        -4.3817516467        3.6061114882       -2.1291342203
Li        -4.4235556510        5.6030481982        1.1424150205
Li        -4.3263108314       -3.8266318412       -1.0769136989
Li        -6.6204296771       -1.7628610127        1.2532519922
Li        -0.8131066751       -2.7492335804       -1.6471056223
Li         2.6341551026       -0.4709477779        2.9626946392
Li         6.2076464248        0.4986333237        2.5057150341
Li        -1.3932400254       -5.8912340220        0.2987349714
Li         5.2478868725        0.7051531007       -3.7013050335
Li         1.5222417879        3.0626584321        2.0593754252
Li        -0.8006283441       -5.9104388660        4.0856838560
Li         6.3195762868       -1.5992472567       -0.7605570924
Li        -1.9331858691        0.8103247540       -2.5570589959
Li         0.9418488351        3.1917780364       -1.7083590928
Li        -4.2189820698        1.4775569755       -5.3409197934
Li         2.0892844771       -3.5569384652        4.9719508154
Li         7.3209819581        2.1007120016       -0.7939679446
Li         5.0751608075        4.0976172653        1.5856827898
Li         2.3264927717        2.8107048108       -5.1482071610
Li        -6.6575300931       -1.4235311934       -5.3349613341
Li         3.8686604130        2.4696138217        4.8986316770
Li         1.3249966476       -0.0351164184        6.4277705629
