69

Li          4.6186114774        5.2777883535       -4.1464338968
Li        -4.7265310891       -6.2880475907        2.1750059229
Li        -3.4970715013       -0.5295774830        5.2611678588
Li        -3.0574444312        3.3155255395        1.0243055574
Li         6.9087084865       -4.0593042324       -1.5498386272
Li         0.7481469023       -5.0647374160        5.8090225803
Li        -5.5719719301        5.1758628935        2.9228411808
Li        -0.2962158822       -1.9027932475        4.2000907779
Li        -6.1995551715       -0.5144826799       -0.4138220334
Li        -1.1712758504       -2.3563977888        7.7256362532
Li        -2.9802848831       -4.3859990831        5.0273535806
Li         1.7126593554        7.5367830645        2.5775342287
Li         2.0080271491        3.4193700439       -2.3802181093
Li        -2.0868612950       -3.8523851184        1.4673957650
Li         3.8295694514        4.3159671197        2.3619874716
Li        -5.8470416790        1.3768125497        2.9003863540
Li         0.5214118650        4.5037973736        0.9131382902
Li        -1.6129587829        4.6466066345       -2.2581503240
Li        -2.7828935429        3.1203323375        4.6249701305
Li         4.4051205559       -4.3651384721        4.6364336101
Li         6.2209908990       -0.2890742190       -1.1854337702
Li        -0.4748817694        7.7266935980       -0.5711243995
Li        -6.4754861845        3.3779863341       -0.3576872136
Li        -2.5307772766       -4.7670538289       -3.8913886195
Li         1.0086671262        6.5749519024       -4.0007974805
Li        -7.1681845106        1.4577737814       -3.5876785946
Li        -5.0745105697       -1.6997482643       -3.9820484984
Li         2.0047006002       -0.3931235073       -6.3499879547
Li        -4.1907597083        6.5218214953       -0.3962130698
Li         3.6319153220       -5.7899635403       -2.5845122234
Li         1.4766228028       -7.6006986600        0.0704205303
Li        -2.0314228197       -1.6871850707       -1.9882844306
Li        -0.6519796999        1.5608441287       -4.3044562928
Li        -1.0617671768       -7.0644142065        2.9870624872
Li         4.6400743935       -2.3917063647       -4.1256780152
Li        -1.9780400090        6.4659264701        2.7838851113
Li         5.6073484370        3.4909663184       -0.9310512918
Li         1.6680015195       -0.7719243052       -2.7473772880
Li        -5.4979111547       -2.5891463153        2.7094660592
Li        -4.0748295333        1.5295446352       -5.8760196382
Li         2.4680869377       -1.6990942597        6.6644961444
Li         1.9063607162        3.4750959185       -6.1449289559
Li        -3.7826109922        1.4966785465       -2.2003802760
Li        -1.7903342436        4.6582203723       -5.9455103861
Li         6.1048080288        1.2542747648        2.3303594462
Li        -1.6988609148       -1.5653048646       -5.7909233636
Li         0.3647100145       -4.3908256978       -1.3916880729
Li        -5.0037465989        4.6253962683       -3.7177661235
Li         1.6053516528       -4.6246071816        2.2474578288
Li         3.2620046671       -1.2363234099        3.0298568748
Li        -4.8353865767       -3.9963228443       -0.9163254438
Li         3.3361320482        1.7615980045        5.0948266462
Li         1.1707833222       -3.8476571350       -4.9005848036
Li        -0.8700780453        1.5207735943       -7.9567413491
Li         3.0678251242        1.1941199731        0.2981578062
Li         6.0197121987       -0.9789537200        5.4235700439
Li         3.6704611985       -2.7740599942       -0.4260115062
Li        -0.1608483937        1.1322339850        6.5547390204
Li         0.2335356576        1.4938463503        2.9394552253
Li        -2.9179159451       -0.2868635916        1.5263483084
Li         6.5546728456       -2.5667816573        1.9600898220
Li         0.2671661918       -7.3405070594       -3.5575615646
Li        -0.5117422929        1.4742955967       -0.7164873437
Li        -2.2610143195       -6.9142942311       -0.6888283256
Li         4.4994737359        1.4200262066       -4.0753965964
Li         4.8553609018       -5.9324862312        1.0897991693
Li         3.2022493504        6.5259676118       -0.7928332314
Li         0.7546958448        4.5848451063        4.7860168789
Li         0.5192279938       -1.4957436005        0.7268921487
