80

Li          3.6083086857        8.1009859096        0.9352595308
Li         6.5542979041       -0.9340257510        0.1764610082
Li         1.2729688803        1.6438907409       -4.9272778068
Li         5.3133409549        2.9886880625        4.9631517410
Li        -5.0523363668        3.8582703621        1.8574204293
Li        -3.3902441871       -6.3477738876        3.8666074582
Li         2.9003077962       -1.5213020038        0.0454845376
Li         2.3817901354       -5.6301580959       -4.0292398201
Li        -0.4029176186        5.4692779193        5.6476130906
Li        -3.0143118153       -4.3379673550        7.1844654858
Li        -4.3738452373       -1.7275517409        1.3054283961
Li         0.1095955731       -5.6972477427        5.4314113459
Li        -2.2065023643       -4.8214357701        0.6971346862
Li         0.0946461896       -2.0238788271        6.8884380990
Li        -0.6502851778       -7.2504298950       -1.8410220919
Li        -3.4210335610        6.7646590962        3.6619173059
Li        -5.8797742386       -5.1066321137        1.1495358037
Li        -4.5606619618       -2.8950219525       -5.2153792322
Li        -2.6831039628        6.2891910464       -0.1411794168
Li         6.6977945138        2.6813138785       -1.2475924136
Li         1.5605340903        5.2464314363       -4.6470793542
Li        -1.0087858433       -1.4385676058       -5.0511154982
Li         4.2967940807        1.6676702561        1.6048499373
Li        -2.1714698577        5.7936176135       -3.9147268908
Li         1.2403618134       -4.1394725025        2.2683412928
Li        -3.6439091416       -8.1286515414        0.4093025047
Li         0.7824296554        1.5233521194        1.0595271084
Li        -0.4610546159        1.7391050613        6.9511547226
Li        -5.7154350662        0.6231248912        3.7038457946
Li         3.1740769410        6.1797704874        4.2981759794
Li         0.2580992094       -3.7332091045       -1.7672897150
Li        -3.0971601797       -1.7943021378       -2.0772237909
Li         0.0767883774        7.5056262954        2.3358914320
Li         2.4916116985        3.3202925620       -7.8922819260
Li        -1.2048639804        3.5648126957       -6.9145712008
Li         4.9512194029       -3.9368597797        1.9618713200
Li         4.8269739225        3.1019988423       -4.8434380258
Li        -3.6095599681        3.3313242796        5.4295247778
Li        -5.5651553341       -3.1843968642        4.5481171648
Li         0.2161670962        0.1680037523       -8.1647828502
Li         2.1612906897        4.7862999809        1.0104700566
Li         5.8704148912       -0.3213876913       -3.4939792354
Li         1.7178310139        2.7661579787        4.2424430574
Li         5.1668054474       -3.4959372508       -5.6529877780
Li        -3.5054638909        0.3963167156       -7.0250531426
Li         2.6936595581       -6.2809916010       -0.2574796610
Li        -0.1920627298       -7.5952154469        2.0180480807
Li        -1.8825571997        0.6916303466        3.6200009537
Li        -4.9684234994        3.9033642388       -1.9851688382
Li        -1.3631057600        4.0440752006        2.3678054657
Li         5.5122071499       -0.7810717215        3.9722074054
Li         3.2007385404        1.8748002106       -1.8349858991
Li         3.8725523621       -0.1110174810       -6.8401546325
Li        -4.8643795602        3.7309806491       -5.7698636210
Li         4.1860459029        5.5132679439       -1.9069572222
Li         3.2299203452       -6.9131925095        3.5565589447
Li         3.3209558287       -3.5556274959        5.4713011947
Li        -6.6195104187       -2.6204703594       -1.7092666763
Li         7.8616909843        1.8810808046        2.3513986327
Li         0.0532863651        0.0414136946       -2.0126704856
Li         3.1715305626        0.2940599231        6.7996980234
Li        -4.0733252258       -5.4256601979       -2.3507148051
Li        -0.1683229043        3.8029799851       -1.6235124628
Li        -2.0670734964       -2.9903444653       -8.1428266316
Li         0.7388564426        7.3192690937       -1.5044490785
Li        -2.3717379745        1.9367385820       -3.8003959381
Li        -2.9003070628        1.5213031936       -0.0454847371
Li         1.5727789645       -3.2788710427       -6.9818506947
Li         2.5715336890       -1.7814582454       -3.7460277094
Li        -1.3068482174       -5.0492654930       -4.9348428323
Li        -3.5264141912       -0.5698758034        6.6045907056
Li        -1.9368030298       -2.9363435557        4.0283464920
Li         5.8051809989        5.0486613534        1.6678615506
Li         5.0707116802       -3.8238654651       -1.8783773854
Li        -0.8357164437       -1.5647659541        0.9531430485
Li        -6.5554697088        0.9331160521       -0.1322069424
Li        -5.6777411959        0.4711318021       -3.7834148959
Li         1.6892051346       -0.8419023848        3.6830103160
Li        -7.9730040170       -1.9675907946        1.8529758945
Li         2.6253735328        4.0356845735        7.5060805635
