84

Li          7.3516404006        0.8471226942       -2.7115163940
Li         -2.4286810855       -6.7844793126       -1.1765023924
Li         -4.4957337933        0.0676478221       -2.7364099076
Li         -4.7891064450        1.4696499103        0.8140861774
Li          4.0343965700       -5.1137509939       -0.9988886928
Li         -5.1481802228        4.9294114790       -0.4734332174
Li          4.2343593715        2.6353972895       -2.1844871446
Li          2.1052140327        4.0622374012       -6.8844118710
Li         -1.6170792999       -2.3136395821       -6.5850465829
Li          0.9279097202       -0.0057643776        1.8587158603
Li          0.4580341731        7.0704117082       -5.2186310840
Li          0.7406979768       -5.8145718095       -2.8600532380
Li         -5.0108901270       -2.2708884806        0.1552757263
Li         -2.2698157484       -3.0884527729       -2.6010383262
Li         -2.9376903834        2.3022603827        6.0484571861
Li         -7.7818847054        3.3655193941        1.8867218058
Li          7.0744729478       -4.5191187550        1.0340957699
Li          2.6287699336        5.8699699170        6.0083623547
Li         -5.0794571924       -2.5732975314       -5.1592768114
Li         -0.9681687850        5.3241239095        4.7176876105
Li          0.7601908523       -3.1725928536        3.3784921397
Li          1.2180436138        0.6762620582       -1.6051912677
Li          3.9810178507       -2.2675305909        1.4225136805
Li          2.5066002450        0.9061340765       -5.0234389036
Li         -1.6899961460        3.9944496548       -6.0470642436
Li          1.7667889219        2.9557634109        3.8939227163
Li          4.3235579299        2.5098734936        6.5890307250
Li          1.2839329135        3.6909205567        0.3290033646
Li          5.6266678386       -1.0092182108       -5.4822701981
Li          7.2422319890        4.7168560016       -2.8043062676
Li         -2.6663903391       -5.7041595272       -4.9208004179
Li          4.1538808840       -1.2026809695       -2.0515185765
Li         -2.0386823013       -7.6715010528        2.5579479697
Li         -1.4008531239        0.0933325606        8.8288917834
Li         -0.0799673737        0.9783750058       -7.6849797346
Li         -2.8749223524       -1.0489535040        3.1089310714
Li          3.8532168792        5.9032944061       -3.9992731973
Li         -2.8864255925       -4.6129003489        4.5943340609
Li         -2.0929787647        2.9383789069       -1.3237351899
Li          0.6242148003       -6.3517342190        4.8963300925
Li          7.2162800745       -0.7943429117        0.6594475940
Li         -8.0273890284       -0.3789581627        1.2652089420
Li         -1.9444139469       -4.0527276113        1.1288942785
Li          3.9559963577       -4.2245442453       -4.6093427033
Li         -3.8202033807        0.8141888281       -6.7028219669
Li          0.7989049712        3.8751733882       -3.3829367148
Li         -5.5449651927       -4.9646392172       -2.2537557858
Li         -8.2185050152       -4.0888518976        0.5325290627
Li          2.2554799796       -0.4589197572        8.0290019896
Li          0.5996709017        2.9904036170        7.4250615600
Li         -3.8969208899       -1.4547014045        6.5178235982
Li          0.7639750346       -5.2004493601       -6.5086879054
Li          1.8366071377        6.6057631404        2.3982620306
Li         -1.7137824829        5.9229848634        0.9763540883
Li          0.9873987325       -6.3678001581        0.9195283098
Li          6.3550246976       -2.6310617010        4.1964912020
Li         -7.7199391455       -1.7571053676       -2.3783001510
Li         -1.2691169303        0.6842597872       -4.1797067682
Li         -5.9231908151        0.9376387203        4.2387790876
Li          6.7113919196        1.1653572536        3.8678080505
Li          3.9461169459       -5.5152088136        3.0009542255
Li          4.5144238487        5.6672604463       -0.2085951406
Li         -1.8507797851       -0.4832752592       -0.2802755561
Li          5.5871706849        2.8400762251       -5.6388225816
Li          2.3845786497       -1.9351306283       -7.4035560294
Li          5.0179054274        4.5079032640        3.3218677920
Li         -5.1026668425       -5.8532579020        1.5094436407
Li         -0.2360062601       -0.0053274280        5.3094081810
Li          4.1342479487        1.4475861710        1.2034509748
Li         -1.6468479221        2.4218234885        2.4539373481
Li          3.4091412442       -0.4015292904        4.5233683024
Li         -6.1443160845       -2.8284286675        3.6203762812
Li          0.9711917363       -2.2691392168       -4.0374087340
Li          7.0866039745       -3.1075581327       -2.4998066529
Li         -0.4252286625       -3.1923665082        7.0419925102
Li          1.0380188360       -2.9456258985       -0.5192715166
Li          7.2829601444        3.0397799076        0.5270830010
Li          3.1961895710       -3.6953949494        6.1702665508
Li         -2.3457804050        6.2031572942       -2.8571331940
Li         -7.2150141747        0.6902174651       -5.1920376926
Li         -7.5044728515        2.0588542935       -1.6677223916
Li         -4.4889036612        4.4959287855        3.3023137957
Li          1.1299984241        6.9995789752       -1.4112522690
Li         -4.7797698289        3.4562514275       -3.9987450791
