85

Li          1.0749275633       -4.2664720559       -5.7099608069
Li         -7.3709335755       -3.9221340410        3.0060768090
Li          1.8408591021       -0.7837364389       -5.0390898095
Li          7.4048573002        1.4063287515        2.2365324462
Li         -4.9925413400       -0.9276230098       -2.2505488621
Li          6.2001170977       -2.2220998887        2.9805058425
Li         -1.8806793599        5.6675078450       -2.6583386922
Li          3.7811545033        0.3550119901        3.7980379108
Li         -5.2008754080       -1.9626470119        5.3145718175
Li          4.3473353963       -2.3480429024        6.3526358763
Li         -3.8604567558       -7.3152224191       -2.8139012985
Li          2.9010946558       -2.4197495800        1.0496635470
Li          4.2887912516       -1.9582643754       -2.3170574290
Li         -1.8574536365        2.8682430404        3.1248014971
Li          5.5073048551       -4.7683873524        0.1792158165
Li          0.7768994450       -3.2275201137       -2.0439891691
Li         -6.7465871146        3.8014372367        1.9190171862
Li         -4.2726204292        4.8780771265       -5.3439191205
Li          2.6350716268        3.8640004798       -1.0425299996
Li         -0.7630753660        3.0345233300       -0.2751850657
Li          3.6779382140       -5.0409965652        3.6078164071
Li         -1.9968990635        3.8401098480        6.6452143407
Li          0.6791933848        0.2646050199        1.8793023675
Li         -0.7764316166       -3.4356133141        1.4578043820
Li          5.3938537384        5.1585066224       -3.0823273714
Li         -7.2306134026       -0.0688277851        2.5092380788
Li         -4.5783269610       -2.2097170714        1.2597653007
Li         -2.2788857509       -0.7808726807        3.6155769496
Li         -1.5882272698       -1.1140859193       -4.0224698408
Li         -0.1712126691       -6.6063509788       -2.9237798331
Li         -5.6126294679       -5.6455391274        0.1171900559
Li         -1.2830133644       -1.7508805632       -7.5348259236
Li          4.4167724714        0.9038530530        0.3076686442
Li          1.8151635183        4.5151399497        6.1607542368
Li         -4.4186360317        5.5148645530        4.3735821993
Li         -4.8260279611       -1.5142961386       -5.8884116621
Li          1.7168865456       -5.0183393999        6.9446485791
Li         -0.6329040290        4.9852231039       -6.3718375603
Li         -8.2527536532       -1.2479084463       -3.9843357625
Li         -6.0632288535       -4.2887585221       -3.4624241199
Li         -2.6316131798       -4.5728996544       -5.2382318982
Li          0.8508142974        1.5439823641       -7.6458023857
Li          7.3828178020       -1.3799800113       -0.4734684541
Li         -1.8100182562       -0.6007813323       -0.4804651945
Li         -4.2743711360        1.5998603483        0.7280203064
Li          1.8154915560       -5.9804091267        0.3587393398
Li          5.5904000662        4.5214236395        0.9617723161
Li         -3.2686312665        5.5106059496        0.8824907391
Li          3.6648309283        1.3356175250        7.3884855917
Li         -4.9084962726        1.8071361101        4.7803867455
Li          1.9235614264        3.4903044921        2.5120309338
Li          0.3543736674        2.1652989848        8.9821314187
Li          0.3972688446        2.6144288789       -3.9756189421
Li         -7.8623917500       -2.5411916022       -0.4661356027
Li         -2.7103687391        1.6421831012       -6.4785387578
Li         -7.6265461150        1.2842274841       -1.0193164423
Li          3.8601429420        7.4721791434       -0.5511255911
Li         -1.7583463477       -3.5038998294        6.2271388772
Li          3.1513582099        4.0642009547       -6.0579850360
Li          7.3397117236        2.2549457082       -1.5382531958
Li          0.4897850791        1.1952395217        5.4091142981
Li          0.3853228880        6.5294624198        0.3008803725
Li         -3.0348314179        2.1218829459       -2.8913810767
Li          0.9873646912       -1.4375580704        8.0039564437
Li         -0.0224339778       -6.0943625109        3.7931397217
Li          2.3130352958       -1.9231034913       -8.5350097631
Li         -2.5075217794        0.0998034474        7.2584403940
Li         -5.6136021238        4.3814693807       -1.7658032460
Li          6.9265283475        0.3680569465        5.7742228693
Li         -1.9349596116       -6.8658222419        0.5031015568
Li         -6.2421979649        1.8093017950       -4.6222364060
Li         -3.6793377765       -5.0057954088        3.3856472923
Li          1.4427716799        0.2623814619       -1.5777470741
Li          4.2372537913        1.6545810249       -3.4886955312
Li         -0.6454160819        6.1900188894        3.8538871669
Li          4.6424223275        0.6456185307       -7.0176158936
Li          5.1494600070        3.6265889243        4.5793723567
Li          1.6740133574        6.3393106371       -3.4946404837
Li          7.1651650860       -4.1367082788       -3.1439671094
Li          7.1330769702       -0.4916953604       -4.2514405673
Li          3.1649420182        6.7251840482        3.1260678187
Li          3.5575662623       -5.5182101398       -3.0597533006
Li          1.1888116730       -2.4027324311        4.3802033602
Li         -2.7938981479       -3.9674627788       -1.6454142525
Li          4.7334834169       -3.0460286382       -5.8452716788
