88

Li          0.2808943981        7.3581998709       -3.9574425440
Li          1.6229876165        5.0473336120       -1.4181217060
Li          3.8015034281        1.3091807179        3.6032993971
Li          3.1197283135        1.9585650904       -6.8768618285
Li          3.5113904726       -1.1081763969       -2.3047687924
Li          0.2562138767        0.3181600046        4.3699037542
Li         -0.0090444250       -1.2700396000       -1.8536399377
Li         -1.9094543748       -0.5872851790        1.1316649665
Li          5.3348858387       -0.7703050000        6.2356820301
Li         -1.4134720987       -4.2460313278       -0.5584339080
Li         -3.0899831265        7.5452079889       -2.0362209887
Li          1.1945100773        3.4843008959        2.2882424009
Li          5.2364537083       -0.9826573032        0.9012920628
Li         -1.9833745290        0.7796775406       -3.9555194432
Li          1.2966423746       -4.3750988529       -3.1659697618
Li          2.3876141554       -3.6818735660        0.2409627583
Li         -5.3251490051       -3.7249367934        5.3752246514
Li          3.6564499924        2.2287837805       -0.3125007291
Li          1.6778732001       -0.3319980725        1.1772827069
Li          1.2054945756       -1.2063983663       -5.2832294759
Li         -0.3435993903       -3.1683730599        3.0055588958
Li         -3.9455692846       -1.6222277670       -1.5622344893
Li         -6.8273277614       -0.1852727618        4.9708809000
Li         -2.5462768852        2.5088049265        2.7250664949
Li         -1.6413265307        5.2632737240        0.5467284683
Li         -2.0572923367       -2.9663284380       -4.3769081237
Li         -7.6070965711       -2.9268847184        2.3292754998
Li         -5.5035898973       -0.0380388284        1.4974787140
Li          1.5815490875        2.0018350673       -3.6284104066
Li         -5.2504372077        5.5531603584        0.4807329546
Li         -0.5338608221        3.7974228719        5.6437519721
Li         -3.8290758243        2.2317667973       -0.8251443289
Li         -1.1372904111        0.5292874575        7.6816836316
Li         -3.5399289374       -6.0347666737       -3.1164164763
Li          0.4993719168       -6.6182122689        1.6780883376
Li          0.1477624496        4.2947680224       -6.2671044039
Li          3.2909468703        6.5739208477        1.4061286143
Li          4.8848759935       -4.4420412797       -3.6236655075
Li          2.4854227429        1.8310803114        7.0024468094
Li         -1.7244756928        4.3286590943       -3.1531904303
Li         -0.2247844680       -7.5163357690       -2.0119303845
Li          5.6072782689        5.0498138597       -1.4047494959
Li          3.4623191450        5.1197980257       -4.6039082331
Li          7.3739603547        1.7195113541       -0.4067382044
Li          5.3569544123        1.8890043078       -3.6844610537
Li          7.0801865570       -1.4399773347       -2.6094440841
Li          4.8513413941       -1.3010567157       -5.8073096648
Li         -7.4113007598        2.4899596859       -0.5829816426
Li         -3.2184870860       -0.7375483017        4.4949921558
Li         -6.2536506829        3.1290730767        3.1105934285
Li         -4.1082254574        2.4217527967        6.1564641919
Li          7.4927638822        0.6512722198        3.3573958888
Li         -0.6524611889        0.9060013931       -7.5612134032
Li         -0.2942065549        2.0951137268       -0.6236162954
Li          5.8532783495        3.9872458691        2.2867942390
Li          2.5550079423       -4.3491194081       -6.7113388517
Li          6.1558541962       -4.3413809255       -0.1027018338
Li          1.7469171024       -1.8995025238        7.0431501370
Li         -5.8488009618       -3.0726367957       -4.2459277063
Li         -4.5590843511       -1.0021023510        7.9145611301
Li         -3.1796557969       -7.1819371363        0.5220804032
Li         -6.0517800563       -4.7216289846       -0.7183356051
Li         -2.4212788690       -6.0685725023        4.1285904376
Li          0.2628030345        8.3471461698       -0.2288997537
Li          6.7680659744       -3.1524410106        3.5295539279
Li         -0.8834958713       -2.9428668774       -7.8541085627
Li         -3.9328302950       -3.4966158129        1.9499872919
Li         -6.0655431724       -6.3822893464        2.7769816242
Li          0.0350881022        6.8815583853        3.3978261544
Li         -3.0331668926        8.4972497563        1.6462455308
Li         -5.7572899149        0.8531963974       -3.7716902501
Li          3.1588938793       -2.4705638928        3.7468616506
Li         -0.6992491606       -6.1668410432       -5.6952550676
Li          4.1056930197       -5.8794139721        2.7180390370
Li         -3.5598774305        5.6822687103        4.0702226653
Li         -3.9342773432       -0.7806632540       -6.6999769222
Li          1.2824872035       -5.3897046279        5.3158887535
Li          6.0519716990        2.9584141453        6.0143931013
Li         -3.5833693456        3.0788006168       -6.2149054071
Li         -5.4166957112        4.6129981166       -3.1840812421
Li          3.1027365263        5.0180436188        4.9228502591
Li          2.6825272125       -7.4891210129       -4.5751315508
Li          3.4151431297       -6.9246949921       -0.9371597355
Li          3.5418435107        8.1063045285       -2.1429873736
Li          2.3589043007       -1.1805351253       -8.7870119680
Li          8.8508670588       -1.6929412105        0.6964475978
Li         -7.6289649593       -1.3160734063       -1.2451966060
Li         -1.6893559027       -3.2544051548        6.5955485537
