90

Li         -2.3306211625        7.9685983482       -1.5702250842
Li          0.3152693848        5.4472116850       -1.0828596827
Li          5.2344988120        1.2641064561        0.3277552123
Li         -2.2156532559        3.5617744721       -6.7046893677
Li          1.0585408143       -0.1567855742       -4.2878668025
Li          3.0740896147       -0.3445852294        2.9644871099
Li         -1.2968606719       -0.8559544779       -1.7175806250
Li         -0.6739049670       -0.9899333438        1.8234766032
Li          8.1248518676       -1.0214428130        0.8118003285
Li         -1.5202034364       -4.1701322026       -0.4905865103
Li         -3.5670705382        7.3828620201        2.0635992764
Li          2.4192010087        3.2270817507        1.5499679087
Li          4.4836071148       -0.3186744463       -3.0650359357
Li         -4.1319652048        1.2526192852       -1.5207016085
Li         -1.2185328066       -3.4915718468       -4.1774672964
Li          1.8565809344       -3.2525484829       -2.2433543278
Li         -0.4790181093       -5.2280983149        6.4870890773
Li          2.5476878865        2.8124928139       -2.2195512299
Li          1.9982710603       -0.2027683676       -0.4255750225
Li         -2.6478859669       -0.0453200775       -4.9857009395
Li          1.6987492146       -3.6243847657        1.6451479960
Li         -4.0328380914       -1.7488158144        0.9894754477
Li         -1.8151485313       -1.8957239678        7.9525393669
Li         -0.0987580518        1.6802632663        4.0790730443
Li         -0.8266715000        4.8835207411        2.5191804465
Li          7.6247538554       -4.7832130687        0.5532321332
Li         -4.5259687871       -2.3484968863       -2.5750692259
Li         -4.1934839611       -4.2180946517        5.9413321623
Li         -3.0888628567       -0.9607109629        4.5424732494
Li         -1.2074978533        2.8474641774       -3.3269190069
Li         -3.5685797208        4.7181096807        4.8768171057
Li          3.3623717911        2.7096215711        5.1806006260
Li         -3.4288112240        1.8817437548        2.2890132288
Li          4.2305108755       -0.9199604567        6.3210517727
Li         -4.8430245334       -5.7471761833       -1.3445882323
Li          1.3478153869       -6.6313912960       -0.6164538309
Li         -4.0008549679        5.3488174867       -3.8322202087
Li          3.4622263300        6.6672021180        0.2165653701
Li          1.1727069068       -3.0079074382       -6.8483326542
Li          6.5014763956        0.9591869684        3.7720148446
Li         -3.3434141625        4.6097229108       -0.3388485888
Li         -1.6492677016       -6.9567881975       -3.0236770261
Li          3.3224903565        6.0004025522       -3.6808883486
Li         -0.4053264759        6.3083097653       -4.5861784513
Li          5.2591788707        2.8158268943       -4.8250144828
Li          1.5742910972        3.2518051503       -5.8503652629
Li          3.5239460239        0.0465647890       -6.9015912531
Li         -0.2596581649        0.4257611709       -7.7525931874
Li         -6.0040375607        1.7215389781        4.7984190263
Li          0.5700763325       -1.8909882299        5.1058127044
Li         -2.6653536138        1.7249636701        6.9300214417
Li          1.0026905038        0.8055362300        7.5655040423
Li          7.8289381707        1.1517711627       -2.3882046918
Li         -5.5188923726        2.1594484300       -4.9912211145
Li         -0.6552183023        2.1719058103        0.1095027219
Li          5.9479588557        4.3724057347       -1.3846519673
Li         -2.6198595956       -2.6987889840       -7.5737541572
Li          4.4493437250       -3.3334528135       -5.0667857386
Li          5.9533242747       -2.8249939110        3.4481448387
Li         -7.2648517708       -2.9486152154       -0.0054480044
Li          1.8233336709       -2.8940953227        8.4188946411
Li         -2.1825248150       -7.4562043393        0.8105893413
Li         -5.0976451464       -5.1812248842        2.3188451186
Li          0.7937880494       -6.9270305275        3.1959016858
Li          0.1453786007        8.2797569555        1.3825751481
Li          7.3594303301       -2.6943906877       -2.6078975368
Li         -5.9356579787       -1.5814207987       -5.8761472075
Li         -1.7043713050       -4.2265680001        3.1305333115
Li         -2.8298110103       -7.4567494689        4.5000477281
Li          2.3468387929        6.1869186214        3.8571296687
Li         -1.0753974506        7.6681484068        4.9259146161
Li         -6.8356731447        0.8041053682        1.0771560209
Li          4.7642298778       -2.5141403801        0.0436543319
Li         -4.4129885971       -5.0716335424       -5.1062672176
Li          4.7932276103       -5.5845612583       -1.9806630972
Li          0.0595595567        4.4074656612        6.4062745485
Li         -7.4327449729       -0.0652912424       -2.5890951521
Li          4.3359269533       -6.0582658123        1.8287251196
Li          8.5388909304        2.7509794695        0.9931789924
Li         -6.7899353707        3.6728825624       -1.6468942674
Li         -6.1286336327        4.4433756872        2.0701115303
Li          5.6226534248        4.5192682394        2.5644387961
Li         -1.1480218699       -6.1105311045       -6.7661944222
Li          1.8198076616       -6.0828211945       -4.4571739403
Li          1.3236338756        8.8138931595       -2.1941743483
Li         -4.0979456244        0.7237279474       -8.2858218015
Li          7.0384910120       -0.5190342305       -5.7108931577
Li         -6.5497461213       -1.9537590347        3.7518975071
Li          3.0629186035       -4.5103821037        5.1198802151
Li         -5.4543634558       -0.9437399708        7.3653766079
