20

Li        -0.5601943422       -0.0140572691        1.3637911292
Li         1.0525104837        0.0500466260        0.3940542096
Li        -0.7229129927       -0.4843428582       -0.1490346799
Li        -0.0019383483        1.3138059191        0.3864172820
Li        -0.3080619996        1.0180700588       -0.4760544098
Li         0.2770262412       -0.3645920034        0.0551754797
Li        -0.3994266179        0.3497696748        0.3632212119
Li        -0.3506698364       -0.6605379938        0.7169322524
Li        -1.6759132495        0.5287593700        0.2887022341
Li         0.7297890915        0.8168617885        0.7800009475
Li        -1.0999257610        0.7150509268        1.0442288623
Li        -0.1195230048        0.8324621295        1.2444492323
Li        -0.6720486486        1.5457704354        0.9968006146
Li        -1.0637255504        0.4110183688       -0.4457435077
Li        -1.2183483991       -0.2219447253        0.6825613955
Li        -0.1628510183        0.1083159057       -0.6536083571
Li        -0.9823411046        1.1963947164        0.1861969120
Li         0.4933477666        0.5974905606       -0.1277539941
Li         0.3387249179       -0.0354725335        1.0005509092
Li        -1.6411899051       -0.2725459007       -0.1560602051