19

Li            1.411535           -1.916476           -2.908091
Li            1.318977            1.212903           -2.967015
Mn            1.712560            2.837172            1.843528
Li            4.403988            0.465614            1.051329
Li            1.770015           -0.043057            2.460916
Li           -1.442160           -0.762570           -3.284070
Li            0.025226           -0.559703           -1.144696
Li            2.173103           -1.926871            0.137227
Li            0.821663            3.415283           -0.929492
Mn           -1.040978            1.055002            3.205168
Li           -2.535619           -0.120402            0.037167
Li           -0.237928            1.259461            0.749241
Li           -0.812714           -3.029298           -1.041352
Mn           -0.450538           -1.536482            1.598052
Li            2.197367            0.900354           -0.281066
Li            3.890675           -0.264058           -1.903424
Li           -1.415221            1.934596           -1.817223
Li           -1.661855            3.403656            0.949229
Li            3.794156            2.753907           -1.196580
               
