19

    Li            5.264974           -0.035342            0.056807
                Li            3.748710           -1.690496           -1.650493
                Li            4.715250           -4.248686           -0.239660
                Li            6.480908           -2.359337           -1.627914
                Li            6.496894            0.403585           -2.369661
                Li            3.675772            1.424480           -1.502733
                Li            4.256640            2.066008            1.503749
                Li            7.151282            2.043804            0.249927
                Li            8.168551           -0.708514            0.072757
               Li            7.822223           -3.783665            0.383301
               Li            5.935669           -4.593329            2.597738
               Li            5.612624           -2.198615            1.428495
               Li            2.523758           -0.454930            0.713121
               Li            3.900745           -0.302675            3.154241
               Li            6.680350            0.466332            2.684042
               Li            9.516568            0.833150            2.110729
               Li            8.241070           -1.965823            2.694377
               Li            5.722166           -2.112005            4.292574
               Li            3.153066           -3.054507            2.317253