26

Li         0.6702334606       -0.7344167094       -0.0862665994
Li         0.9358025679       -0.1695908629        0.1075082652
Li         0.5898386477        0.2411843636        0.4756711640
Li         0.0612772464       -0.8829868323        0.0900016295
Li        -0.0447617929        0.3203716393       -1.0788572961
Li        -0.7013171984        0.0254180509        0.6807013746
Li        -0.4691944611        0.6087377368        0.5207161728
Li        -0.9170297544       -0.3437410783        0.1939491622
Li         0.5627648409        0.3435467488       -0.8401064650
Li         0.2883138632       -0.2401695103       -1.0403620655
Li        -0.4794311254        0.7667293809       -0.1069254812
Li        -0.8836143006       -0.0929078954       -0.4018413350
Li        -0.9642605030        0.3369850972        0.1328929569
Li        -0.5074095044        0.3829109707       -0.6270901946
Li        -0.3634040366       -0.2491172819       -0.8351513338
Li         0.0831154930        0.7005631004       -0.5093443818
Li        -0.0343777155        0.1127022557        0.6538873766
Li        -0.3094864263       -0.4724129034        0.4531518553
Li         0.7190745999       -0.2311296644       -0.5181507152
Li         0.1724088754       -0.6377939969       -0.5199709975
Li         0.6390312263        0.3546420853       -0.1794958428
Li         0.1033418395        0.5654161142        0.1567629869
Li        -0.4154444705       -0.5379649217       -0.2217740651
Li         0.0874981207        0.0424208449       -0.4499333858
Li         0.2649572891       -0.2424247314        0.1371420899
Li        -0.3715567816        0.0862369995        0.0514851248
