30

Li        -0.1272080280       -0.5717603465        0.9903179701
Li        -0.1272080280       -0.5717603467       -0.9903179700
Li        -0.1272080279        1.1435206932       -0.0000000001
Li         0.3970044447        0.9343079298       -0.3259103460
Li         0.3970044447       -0.1849073261       -0.9720895751
Li         0.3970044447       -0.7494006039       -0.6461792291
Li         0.3970044447       -0.7494006038        0.6461792293
Li         0.3970044447       -0.1849073259        0.9720895752
Li         0.3970044447        0.9343079299        0.3259103458
Li        -0.6393408327        0.7592358079       -0.0000000001
Li        -0.6393408327       -0.3796179040       -0.6575174970
Li        -0.6393408328       -0.3796179038        0.6575174971
Li        -0.2204490853       -0.8420485658        0.3663670780
Li        -0.2204490853        0.1037410865        0.9124189882
Li        -0.2204490853        0.7383074796        0.5460519102
Li        -0.2204490853       -0.8420485659       -0.3663670778
Li        -0.2204490853        0.7383074794       -0.5460519104
Li        -0.2204490853        0.1037410862       -0.9124189882
Li         0.6633373080       -0.1963159798       -0.3400292512
Li         0.6633373081        0.3926319595        0.0000000000
Li         0.6633373080       -0.1963159797        0.3400292513
Li         0.3346848811        0.3481781245       -0.6030622019
Li         0.3346848811       -0.6963562492        0.0000000001
Li         0.3346848811        0.3481781247        0.6030622018
Li        -0.5765387638        0.2000268513       -0.3464566693
Li        -0.5765387638       -0.4000537025        0.0000000000
Li        -0.5765387638        0.2000268513        0.3464566693
Li        -0.0080452835       -0.2102074986        0.3640900678
Li        -0.0080452835        0.4204149973       -0.0000000001
Li        -0.0080452835       -0.2102074987       -0.3640900678
