48

Li        -1.2385808061        0.4170382602        0.1035469715
Li        -1.1232284532        0.1042964697       -0.4571269596
Li        -1.2416708748        0.0691004254        0.6405189579
Li         1.0906974139       -0.8000891414       -0.5726169885
Li         0.5553753775       -1.1761308117        0.5727471130
Li        -0.7743484949       -1.1741064530        0.5689712431
Li        -0.0805765647       -0.1880356115        1.2164316511
Li         1.0086080495        0.1057200361        0.4826455116
Li         1.0418950902       -0.1587308306       -0.6756674548
Li        -0.1203001691       -1.4157273281       -0.5977893113
Li        -0.5116323292       -0.5808595046       -0.9565348799
Li         0.4526517531        0.6465761987       -0.0943781785
Li         0.6348591923       -0.5981748560       -1.0129588849
Li         1.0053046480        0.2848625163       -0.1591264672
Li         0.4699959045        0.5272098659        0.5517644674
Li         0.0454458781       -0.9266628706       -1.0357284115
Li        -0.7064403051       -1.0879757015       -0.5731856928
Li        -0.0731753397        0.5082098919       -0.4836519551
Li        -0.7136524386        0.5243277639        0.5322956455
Li        -0.1108265144        0.3894982382        0.8770733669
Li        -1.3124181433       -0.2803726358        0.0507367145
Li        -1.0450761653       -0.9355096989        0.0101210156
Li        -0.6611936137        0.5082549632       -0.1970179181
Li        -0.5162805607        0.0680540241       -0.7265286071
Li         0.4757812340       -0.0447399351        0.8727915801
Li         0.4827283235        0.1731624812       -0.5667025326
Li        -0.4584420721       -1.3275764412       -0.0104827365
Li         0.8227580657       -0.9865168513        0.0024365641
Li         1.0943089945       -0.3582284454       -0.0316632277
Li        -0.6509355761       -0.0334110391        0.9093469819
Li         0.4981326906       -1.1270448354       -0.5941921941
Li        -1.0158646716       -0.5519479969        0.5866023429
Li         0.8067460104       -0.5383673820        0.5447167767
Li        -0.1089354171       -1.1830642142        0.5700364719
Li         0.2434179484       -0.6871200721        0.9065499553
Li         0.2183059955       -1.3264887572       -0.0150164771
Li        -0.4329377381       -0.6834756265        0.9088482936
Li         0.0629873416       -0.2681913075       -0.8586242959
Li        -0.7649713705       -0.4481244746       -0.3562339078
Li        -0.1175820786        0.4363881924        0.2051545510
Li         0.5108320459       -0.4789671192       -0.3710174130
Li        -0.7061063261       -0.0409469488        0.1986667679
Li        -0.4513134565       -0.6870425938        0.2144351741
Li         0.2347560679       -0.6889582604        0.2149222268
Li        -0.0997217211       -0.1825786857        0.5308768818
Li         0.4593525957       -0.0124179471        0.1385264845
Li        -0.1215872808       -0.7866779702       -0.3937260113
Li        -0.1296661393       -0.1234209799       -0.2029742053
