6

Li        -0.6365776692       -0.4973692580        0.1017659106
Li         0.1333713687       -0.0753388516       -0.1504954804
Li        -0.4490245631        0.1186624911        0.0506560913
Li        -0.0541817374       -0.6913706007       -0.0993856611
Li        -0.3980994099       -0.2776402649       -0.4569207517
Li        -0.1051068906       -0.2950678447        0.4081911818
