80

Li         0.0000000000       -0.0000000008        0.0020072295
Li        -0.3518499459       -0.3518499487        0.5053917405
Li         0.3518499458       -0.3518499488        0.5053917405
Li         0.3518499458        0.3518499429        0.5053917435
Li        -0.3518499459        0.3518499430        0.5053917435
Li        -0.3536541675       -0.3536541661       -0.4987445625
Li         0.3536541675       -0.3536541661       -0.4987445625
Li         0.3536541675        0.3536541688       -0.4987445595
Li        -0.3536541674        0.3536541689       -0.4987445595
Li         0.0000000000       -0.0000000050        0.9904943573
Li         0.0000000000        0.7066702009        0.0026598604
Li         0.6876924527        0.6876924519        0.0028522860
Li         0.6876924526       -0.6876924534        0.0028522802
Li        -0.6876924527       -0.6876924534        0.0028522801
Li        -0.6876924526        0.6876924519        0.0028522860
Li         0.6933943560        0.6933943511        0.9706972890
Li         0.6933943559       -0.6933943609        0.9706972830
Li        -0.6933943560        0.6933943511        0.9706972889
Li        -0.6933943560       -0.6933943608        0.9706972830
Li         0.6888116532        0.6888116565       -0.9737535696
Li         0.6888116532       -0.6888116498       -0.9737535755
Li        -0.6888116531       -0.6888116497       -0.9737535755
Li        -0.6888116531        0.6888116566       -0.9737535696
Li         0.0000000000        0.0000000034       -0.9723985569
Li         0.0000000000        0.7126449262        0.9919691779
Li         0.7126449312       -0.0000000050        0.9919691749
Li        -0.0000000001       -0.7126449362        0.9919691719
Li        -0.7126449313       -0.0000000050        0.9919691749
Li         0.0000000001        0.7118724601       -0.9915011580
Li         0.7118724566        0.0000000035       -0.9915011610
Li         0.0000000000       -0.7118724531       -0.9915011641
Li        -0.7118724566        0.0000000035       -0.9915011610
Li        -1.0581337093       -0.3458300626        0.5041355811
Li         0.0000000000       -1.3780248581        0.0007236633
Li         1.3780248574       -0.0000000008        0.0007236692
Li         0.0000000000        1.3780248566        0.0007236750
Li        -1.3780248574       -0.0000000007        0.0007236691
Li         0.3458300596       -1.0581337122        0.5041355781
Li         1.0581337092        0.3458300568        0.5041355841
Li        -0.3458300597        1.0581337064        0.5041355871
Li        -1.0567920889       -0.3451855731       -0.5023050978
Li         0.3451855746       -1.0567920875       -0.5023051008
Li         1.0567920890        0.3451855759       -0.5023050948
Li        -0.3451855745        1.0567920903       -0.5023050918
Li        -0.3458300597       -1.0581337121        0.5041355781
Li         1.0581337092       -0.3458300626        0.5041355812
Li         0.3458300597        1.0581337063        0.5041355871
Li        -1.0581337093        0.3458300568        0.5041355840
Li        -0.3451855746       -1.0567920875       -0.5023051008
Li         1.0567920889       -0.3451855732       -0.5023050977
Li         0.3451855746        1.0567920903       -0.5023050918
Li        -1.0567920889        0.3451855760       -0.5023050949
Li         0.7066702016       -0.0000000008        0.0026598574
Li         0.0000000000       -0.7066702024        0.0026598544
Li        -0.7066702016       -0.0000000007        0.0026598574
Li         1.3581330737       -0.6802712926        0.0000723789
Li         1.3581330738        0.6802712910        0.0000723847
Li        -1.3581330738       -0.6802712925        0.0000723788
Li        -1.3581330737        0.6802712911        0.0000723846
Li         0.6802712918        1.3581330730        0.0000723875
Li         0.6802712917       -1.3581330745        0.0000723760
Li        -0.6802712918        1.3581330730        0.0000723875
Li        -0.6802712918       -1.3581330745        0.0000723759
Li         1.0184799762        1.0184799774       -0.4773739060
Li         1.0216903180        1.0216903152        0.4768134347
Li         1.0184799761       -1.0184799749       -0.4773739147
Li         1.0216903179       -1.0216903208        0.4768134259
Li        -1.0184799761        1.0184799775       -0.4773739060
Li        -1.0216903180        1.0216903153        0.4768134346
Li        -1.0184799762       -1.0184799748       -0.4773739147
Li        -1.0216903181       -1.0216903207        0.4768134259
Li         0.3512664862        0.3512664793        1.4488984545
Li         0.3512664861       -0.3512664932        1.4488984515
Li        -0.3512664863        0.3512664793        1.4488984544
Li        -0.3512664863       -0.3512664931        1.4488984514
Li         0.3384934027       -0.3384933973       -1.4407808382
Li         0.3384934027        0.3384934080       -1.4407808353
Li        -0.3384934026       -0.3384933972       -1.4407808382
Li        -0.3384934026        0.3384934081       -1.4407808353
Li        -0.0000000001       -0.0000000087        1.8710945453
